*SPEF "ieee 1481-1999"
*DESIGN "spimemio"
*DATE "11:11:11 Fri 11 11, 1111"
*VENDOR "OpenRCX"
*PROGRAM "Parallel Extraction"
*VERSION "1.0"
*DESIGN_FLOW "NAME_SCOPE LOCAL" "PIN_CAP NONE"
*DIVIDER /
*DELIMITER :
*BUS_DELIMITER []
*T_UNIT 1 NS
*C_UNIT 1 PF
*R_UNIT 1 OHM
*L_UNIT 1 HENRY

*NAME_MAP
*3 addr[0]
*4 addr[10]
*5 addr[11]
*6 addr[12]
*7 addr[13]
*8 addr[14]
*9 addr[15]
*10 addr[16]
*11 addr[17]
*12 addr[18]
*13 addr[19]
*14 addr[1]
*15 addr[20]
*16 addr[21]
*17 addr[22]
*18 addr[23]
*19 addr[2]
*20 addr[3]
*21 addr[4]
*22 addr[5]
*23 addr[6]
*24 addr[7]
*25 addr[8]
*26 addr[9]
*27 cfgreg_di[0]
*28 cfgreg_di[10]
*29 cfgreg_di[11]
*30 cfgreg_di[12]
*31 cfgreg_di[13]
*32 cfgreg_di[14]
*33 cfgreg_di[15]
*34 cfgreg_di[16]
*35 cfgreg_di[17]
*36 cfgreg_di[18]
*37 cfgreg_di[19]
*38 cfgreg_di[1]
*39 cfgreg_di[20]
*40 cfgreg_di[21]
*41 cfgreg_di[22]
*42 cfgreg_di[23]
*43 cfgreg_di[24]
*44 cfgreg_di[25]
*45 cfgreg_di[26]
*46 cfgreg_di[27]
*47 cfgreg_di[28]
*48 cfgreg_di[29]
*49 cfgreg_di[2]
*50 cfgreg_di[30]
*51 cfgreg_di[31]
*52 cfgreg_di[3]
*53 cfgreg_di[4]
*54 cfgreg_di[5]
*55 cfgreg_di[6]
*56 cfgreg_di[7]
*57 cfgreg_di[8]
*58 cfgreg_di[9]
*59 cfgreg_do[0]
*60 cfgreg_do[10]
*61 cfgreg_do[11]
*62 net116
*63 net117
*64 net118
*65 net119
*66 cfgreg_do[16]
*67 cfgreg_do[17]
*68 cfgreg_do[18]
*69 cfgreg_do[19]
*70 cfgreg_do[1]
*71 cfgreg_do[20]
*72 cfgreg_do[21]
*73 cfgreg_do[22]
*74 net120
*75 net121
*76 net122
*77 net123
*78 net124
*79 net125
*80 net126
*81 cfgreg_do[2]
*82 net127
*83 cfgreg_do[31]
*84 cfgreg_do[3]
*85 cfgreg_do[4]
*86 cfgreg_do[5]
*87 net114
*88 net115
*89 cfgreg_do[8]
*90 cfgreg_do[9]
*91 cfgreg_we[0]
*92 cfgreg_we[1]
*93 cfgreg_we[2]
*94 cfgreg_we[3]
*95 clk
*96 flash_clk
*97 flash_csb
*98 flash_io0_di
*99 flash_io0_do
*100 flash_io0_oe
*101 flash_io1_di
*102 flash_io1_do
*103 flash_io1_oe
*104 flash_io2_di
*105 flash_io2_do
*106 flash_io2_oe
*107 flash_io3_di
*108 flash_io3_do
*109 flash_io3_oe
*110 rdata[0]
*111 rdata[10]
*112 rdata[11]
*113 rdata[12]
*114 rdata[13]
*115 rdata[14]
*116 rdata[15]
*117 rdata[16]
*118 rdata[17]
*119 rdata[18]
*120 rdata[19]
*121 rdata[1]
*122 rdata[20]
*123 rdata[21]
*124 rdata[22]
*125 rdata[23]
*126 rdata[24]
*127 rdata[25]
*128 rdata[26]
*129 rdata[27]
*130 rdata[28]
*131 rdata[29]
*132 rdata[2]
*133 rdata[30]
*134 rdata[31]
*135 rdata[3]
*136 rdata[4]
*137 rdata[5]
*138 rdata[6]
*139 rdata[7]
*140 rdata[8]
*141 rdata[9]
*142 ready
*143 resetn
*144 valid
*145 _0000_
*146 _0001_
*147 _0002_
*148 _0003_
*149 _0004_
*150 _0005_
*151 _0006_
*152 _0007_
*153 _0008_
*154 _0009_
*155 _0010_
*156 _0011_
*157 _0012_
*158 _0017_
*159 _0018_
*160 _0019_
*161 _0020_
*162 _0021_
*163 _0022_
*164 _0023_
*165 _0024_
*166 _0025_
*167 _0026_
*168 _0027_
*169 _0028_
*170 _0029_
*171 _0030_
*172 _0031_
*173 _0032_
*174 _0033_
*175 _0034_
*176 _0035_
*177 _0036_
*178 _0037_
*179 _0038_
*180 _0039_
*181 _0040_
*182 _0041_
*183 _0042_
*184 _0043_
*185 _0044_
*186 _0045_
*187 _0046_
*188 _0047_
*189 _0048_
*190 _0049_
*191 _0050_
*192 _0051_
*193 _0052_
*194 _0053_
*195 _0054_
*196 _0055_
*197 _0056_
*198 _0057_
*199 _0058_
*200 _0059_
*201 _0060_
*202 _0061_
*203 _0062_
*204 _0063_
*205 _0064_
*206 _0065_
*207 _0066_
*208 _0067_
*209 _0068_
*210 _0069_
*211 _0070_
*212 _0071_
*213 _0072_
*214 _0073_
*215 _0074_
*216 _0075_
*217 _0076_
*218 _0077_
*219 _0078_
*220 _0079_
*221 _0080_
*222 _0081_
*223 _0082_
*224 _0083_
*225 _0084_
*226 _0085_
*227 _0086_
*228 _0087_
*229 _0088_
*230 _0089_
*231 _0090_
*232 _0091_
*233 _0092_
*234 _0093_
*235 _0094_
*236 _0095_
*237 _0096_
*238 _0097_
*239 _0098_
*240 _0099_
*241 _0100_
*242 _0101_
*243 _0102_
*244 _0103_
*245 _0104_
*246 _0105_
*247 _0106_
*248 _0107_
*249 _0108_
*250 _0109_
*251 _0110_
*252 _0111_
*253 _0112_
*254 _0113_
*255 _0114_
*256 _0115_
*257 _0116_
*258 _0117_
*259 _0118_
*260 _0119_
*261 _0120_
*262 _0121_
*263 _0122_
*264 _0123_
*265 _0124_
*266 _0125_
*267 _0126_
*268 _0127_
*269 _0128_
*270 _0129_
*271 _0130_
*272 _0131_
*273 _0132_
*274 _0133_
*275 _0134_
*276 _0135_
*277 _0136_
*278 _0137_
*279 _0138_
*280 _0139_
*281 _0140_
*282 _0141_
*283 _0142_
*284 _0143_
*285 _0144_
*286 _0145_
*287 _0146_
*288 _0147_
*289 _0148_
*290 _0149_
*291 _0150_
*292 _0151_
*293 _0152_
*294 _0153_
*295 _0154_
*296 _0155_
*297 _0156_
*298 _0157_
*299 _0158_
*300 _0159_
*301 _0160_
*302 _0161_
*303 _0162_
*304 _0163_
*305 _0164_
*306 _0165_
*307 _0166_
*308 _0167_
*309 _0168_
*310 _0169_
*311 _0170_
*312 _0171_
*313 _0172_
*314 _0173_
*315 _0174_
*316 _0175_
*317 _0176_
*318 _0177_
*319 _0178_
*320 _0179_
*321 _0180_
*322 _0181_
*323 _0182_
*324 _0183_
*325 _0184_
*326 _0185_
*327 _0186_
*328 _0187_
*329 _0188_
*330 _0189_
*331 _0190_
*332 _0191_
*333 _0192_
*334 _0193_
*335 _0194_
*336 _0195_
*337 _0196_
*338 _0197_
*339 _0198_
*340 _0199_
*341 _0200_
*342 _0201_
*343 _0202_
*344 _0203_
*345 _0204_
*346 _0205_
*347 _0206_
*348 _0207_
*349 _0208_
*350 _0209_
*351 _0210_
*352 _0211_
*353 _0212_
*354 _0213_
*355 _0214_
*356 _0215_
*357 _0216_
*358 _0217_
*359 _0218_
*360 _0219_
*361 _0220_
*362 _0221_
*363 _0222_
*364 _0223_
*365 _0224_
*366 _0225_
*367 _0226_
*368 _0227_
*369 _0228_
*370 _0229_
*371 _0230_
*372 _0231_
*373 _0232_
*374 _0233_
*375 _0234_
*376 _0235_
*377 _0236_
*378 _0237_
*379 _0238_
*380 _0239_
*381 _0240_
*382 _0241_
*383 _0242_
*384 _0243_
*385 _0244_
*386 _0245_
*387 _0246_
*388 _0247_
*389 _0248_
*390 _0249_
*391 _0250_
*392 _0251_
*393 _0252_
*394 _0253_
*395 _0254_
*396 _0255_
*397 _0256_
*398 _0257_
*399 _0258_
*400 _0259_
*401 _0260_
*402 _0261_
*403 _0262_
*404 _0263_
*405 _0264_
*406 _0265_
*407 _0266_
*408 _0267_
*409 _0268_
*410 _0269_
*411 _0270_
*412 _0271_
*413 _0272_
*414 _0273_
*415 _0274_
*416 _0275_
*417 _0276_
*418 _0277_
*419 _0278_
*420 _0279_
*421 _0280_
*422 _0281_
*423 _0282_
*424 _0283_
*425 _0284_
*426 _0285_
*427 _0286_
*428 _0287_
*429 _0288_
*430 _0289_
*431 _0290_
*432 _0291_
*433 _0292_
*434 _0293_
*435 _0294_
*436 _0295_
*437 _0296_
*438 _0297_
*439 _0298_
*440 _0299_
*441 _0300_
*442 _0301_
*443 _0302_
*444 _0303_
*445 _0304_
*446 _0305_
*447 _0306_
*448 _0307_
*449 _0308_
*450 _0309_
*451 _0310_
*452 _0311_
*453 _0312_
*454 _0313_
*455 _0314_
*456 _0315_
*457 _0316_
*458 _0317_
*459 _0318_
*460 _0319_
*461 _0320_
*462 _0321_
*463 _0322_
*464 _0323_
*465 _0324_
*466 _0325_
*467 _0326_
*468 _0327_
*469 _0328_
*470 _0329_
*471 _0330_
*472 _0331_
*473 _0332_
*474 _0333_
*475 _0334_
*476 _0335_
*477 _0336_
*478 _0337_
*479 _0338_
*480 _0339_
*481 _0340_
*482 _0341_
*483 _0342_
*484 _0343_
*485 _0344_
*486 _0345_
*487 _0346_
*488 _0347_
*489 _0348_
*490 _0349_
*491 _0350_
*492 _0351_
*493 _0352_
*494 _0353_
*495 _0354_
*496 _0355_
*497 _0356_
*498 _0357_
*499 _0358_
*500 _0359_
*501 _0360_
*502 _0361_
*503 _0362_
*504 _0363_
*505 _0364_
*506 _0365_
*507 _0366_
*508 _0367_
*509 _0368_
*510 _0369_
*511 _0370_
*512 _0371_
*513 _0372_
*514 _0373_
*515 _0374_
*516 _0375_
*517 _0376_
*518 _0377_
*519 _0378_
*520 _0379_
*521 _0380_
*522 _0381_
*523 _0382_
*524 _0383_
*525 _0384_
*526 _0385_
*527 _0386_
*528 _0387_
*529 _0388_
*530 _0389_
*531 _0390_
*532 _0391_
*533 _0392_
*534 _0393_
*535 _0394_
*536 _0395_
*537 _0396_
*538 _0397_
*539 _0398_
*540 _0399_
*541 _0400_
*542 _0401_
*543 _0402_
*544 _0403_
*545 _0404_
*546 _0405_
*547 _0406_
*548 _0407_
*549 _0408_
*550 _0409_
*551 _0410_
*552 _0411_
*553 _0412_
*554 _0413_
*555 _0414_
*556 _0415_
*557 _0416_
*558 _0417_
*559 _0418_
*560 _0419_
*561 _0420_
*562 _0421_
*563 _0422_
*564 _0423_
*565 _0424_
*566 _0425_
*567 _0426_
*568 _0427_
*569 _0428_
*570 _0429_
*571 _0430_
*572 _0431_
*573 _0432_
*574 _0433_
*575 _0434_
*576 _0435_
*577 _0436_
*578 _0437_
*579 _0438_
*580 _0439_
*581 _0440_
*582 _0441_
*583 _0442_
*584 _0443_
*585 _0444_
*586 _0445_
*587 _0446_
*588 _0447_
*589 _0448_
*590 _0449_
*591 _0450_
*592 _0451_
*593 _0452_
*594 _0453_
*595 _0454_
*596 _0455_
*597 _0456_
*598 _0457_
*599 _0458_
*600 _0459_
*601 _0460_
*602 _0461_
*603 _0462_
*604 _0463_
*605 _0464_
*606 _0465_
*607 _0466_
*608 _0467_
*609 _0468_
*610 _0469_
*611 _0470_
*612 _0471_
*613 _0472_
*614 _0473_
*615 _0474_
*616 _0475_
*617 _0476_
*618 _0477_
*619 _0478_
*620 _0479_
*621 _0480_
*622 _0481_
*623 _0482_
*624 _0483_
*625 _0484_
*626 _0485_
*627 _0486_
*628 _0487_
*629 _0488_
*630 _0489_
*631 _0490_
*632 _0491_
*633 _0492_
*634 _0493_
*635 _0494_
*636 _0495_
*637 _0496_
*638 _0497_
*639 _0498_
*640 _0499_
*641 _0500_
*642 _0501_
*643 _0502_
*644 _0503_
*645 _0504_
*646 _0505_
*647 _0506_
*648 _0507_
*649 _0508_
*650 _0509_
*651 _0510_
*652 _0511_
*653 _0512_
*654 _0513_
*655 _0514_
*656 _0515_
*657 _0516_
*658 _0517_
*659 _0518_
*660 _0519_
*661 _0520_
*662 _0521_
*663 _0522_
*664 _0523_
*665 _0524_
*666 _0525_
*667 _0526_
*668 _0527_
*669 _0528_
*670 _0529_
*671 _0530_
*672 _0531_
*673 _0532_
*674 _0533_
*675 _0534_
*676 _0535_
*677 _0536_
*678 _0537_
*679 _0538_
*680 _0539_
*681 _0540_
*682 _0541_
*683 _0542_
*684 _0543_
*685 _0544_
*686 _0545_
*687 _0546_
*688 _0547_
*689 _0548_
*690 _0549_
*691 _0550_
*692 _0551_
*693 _0552_
*694 _0553_
*695 _0554_
*696 _0555_
*697 _0556_
*698 _0557_
*699 _0558_
*700 _0559_
*701 _0560_
*702 _0561_
*703 _0562_
*704 _0563_
*705 _0564_
*706 _0565_
*707 _0566_
*708 _0567_
*709 _0568_
*710 _0569_
*711 _0570_
*712 _0571_
*713 _0572_
*714 _0573_
*715 _0574_
*716 _0575_
*717 _0576_
*718 _0577_
*719 _0578_
*720 _0579_
*721 _0580_
*722 _0581_
*723 _0582_
*724 _0583_
*725 _0584_
*726 _0585_
*727 _0586_
*728 _0587_
*729 _0588_
*730 _0589_
*731 _0590_
*732 _0591_
*733 _0592_
*734 _0593_
*735 _0594_
*736 _0595_
*737 _0596_
*738 _0597_
*739 _0598_
*740 _0599_
*741 _0600_
*742 _0601_
*743 _0602_
*744 _0603_
*745 _0604_
*746 _0605_
*747 _0606_
*748 _0607_
*749 _0608_
*750 _0609_
*751 _0610_
*752 _0611_
*753 _0612_
*754 _0613_
*755 _0614_
*756 _0615_
*757 _0616_
*758 _0617_
*759 _0618_
*760 _0619_
*761 _0620_
*762 _0621_
*763 _0622_
*764 _0623_
*765 _0624_
*766 _0625_
*767 _0626_
*768 _0627_
*769 _0628_
*770 _0629_
*771 _0630_
*772 _0631_
*773 _0632_
*774 _0633_
*775 _0634_
*776 _0635_
*777 _0636_
*778 _0637_
*779 _0638_
*780 _0639_
*781 _0640_
*782 _0641_
*783 _0642_
*784 _0643_
*785 _0644_
*786 _0645_
*787 _0646_
*788 _0647_
*789 _0648_
*790 _0649_
*791 _0650_
*792 _0651_
*793 _0652_
*794 _0653_
*795 _0654_
*796 _0655_
*797 _0656_
*798 _0657_
*799 _0658_
*800 _0659_
*801 _0660_
*802 _0661_
*803 _0662_
*804 _0663_
*805 _0664_
*806 _0665_
*807 _0666_
*808 _0667_
*809 _0668_
*810 _0669_
*811 _0670_
*812 _0671_
*813 _0672_
*814 _0673_
*815 _0674_
*816 _0675_
*817 _0676_
*818 _0677_
*819 _0678_
*820 _0679_
*821 _0680_
*822 _0681_
*823 _0682_
*824 _0683_
*825 _0684_
*826 _0685_
*827 _0686_
*828 _0687_
*829 _0688_
*830 _0689_
*831 _0690_
*832 _0691_
*833 _0692_
*834 _0693_
*835 _0694_
*836 _0695_
*837 _0696_
*838 _0697_
*839 _0698_
*840 _0699_
*841 _0700_
*842 _0701_
*843 _0702_
*844 _0703_
*845 _0704_
*846 _0705_
*847 _0706_
*848 _0707_
*849 _0708_
*850 _0709_
*851 _0710_
*852 _0711_
*853 _0712_
*854 _0713_
*855 _0714_
*856 _0715_
*857 _0716_
*858 _0717_
*859 _0718_
*860 _0719_
*861 _0720_
*862 _0721_
*863 _0722_
*864 _0723_
*865 _0724_
*866 _0725_
*867 _0726_
*868 _0727_
*869 _0728_
*870 _0729_
*871 _0730_
*872 _0731_
*873 _0732_
*874 _0733_
*875 _0734_
*876 _0735_
*877 _0736_
*878 _0737_
*879 _0738_
*880 _0739_
*881 _0740_
*882 _0741_
*883 _0742_
*884 _0743_
*885 _0744_
*886 _0745_
*887 _0746_
*888 _0747_
*889 _0748_
*890 _0749_
*891 _0750_
*892 _0751_
*893 _0752_
*894 _0753_
*895 _0754_
*896 _0755_
*897 _0756_
*898 _0757_
*899 _0758_
*900 _0759_
*901 _0760_
*902 _0761_
*903 _0762_
*904 _0763_
*905 _0764_
*906 _0765_
*907 buffer\[0\]
*908 buffer\[10\]
*909 buffer\[11\]
*910 buffer\[12\]
*911 buffer\[13\]
*912 buffer\[14\]
*913 buffer\[15\]
*914 buffer\[16\]
*915 buffer\[17\]
*916 buffer\[18\]
*917 buffer\[19\]
*918 buffer\[1\]
*919 buffer\[20\]
*920 buffer\[21\]
*921 buffer\[22\]
*922 buffer\[23\]
*923 buffer\[2\]
*924 buffer\[3\]
*925 buffer\[4\]
*926 buffer\[5\]
*927 buffer\[6\]
*928 buffer\[7\]
*929 buffer\[8\]
*930 buffer\[9\]
*931 clknet_0_clk
*932 clknet_4_0_0_clk
*933 clknet_4_10_0_clk
*934 clknet_4_11_0_clk
*935 clknet_4_12_0_clk
*936 clknet_4_13_0_clk
*937 clknet_4_14_0_clk
*938 clknet_4_15_0_clk
*939 clknet_4_1_0_clk
*940 clknet_4_2_0_clk
*941 clknet_4_3_0_clk
*942 clknet_4_4_0_clk
*943 clknet_4_5_0_clk
*944 clknet_4_6_0_clk
*945 clknet_4_7_0_clk
*946 clknet_4_8_0_clk
*947 clknet_4_9_0_clk
*948 config_clk
*949 config_cont
*950 config_csb
*951 config_ddr
*952 config_do\[0\]
*953 config_do\[1\]
*954 config_do\[2\]
*955 config_do\[3\]
*956 config_en
*957 config_oe\[0\]
*958 config_oe\[1\]
*959 config_oe\[2\]
*960 config_oe\[3\]
*961 config_qspi
*962 din_ddr
*963 net1
*964 net10
*965 net100
*966 net101
*967 net102
*968 net103
*969 net104
*970 net105
*971 net106
*972 net107
*973 net108
*974 net109
*975 net11
*976 net110
*977 net111
*978 net112
*979 net113
*980 net12
*981 net128
*982 net129
*983 net13
*984 net130
*985 net131
*986 net14
*987 net15
*988 net16
*989 net17
*990 net18
*991 net19
*992 net2
*993 net20
*994 net21
*995 net22
*996 net23
*997 net24
*998 net25
*999 net26
*1000 net27
*1001 net28
*1002 net29
*1003 net3
*1004 net30
*1005 net31
*1006 net32
*1007 net33
*1008 net34
*1009 net35
*1010 net36
*1011 net37
*1012 net38
*1013 net39
*1014 net4
*1015 net40
*1016 net41
*1017 net42
*1018 net43
*1019 net44
*1020 net45
*1021 net46
*1022 net47
*1023 net48
*1024 net49
*1025 net5
*1026 net50
*1027 net51
*1028 net52
*1029 net53
*1030 net54
*1031 net55
*1032 net56
*1033 net57
*1034 net58
*1035 net59
*1036 net6
*1037 net60
*1038 net61
*1039 net62
*1040 net63
*1041 net64
*1042 net65
*1043 net66
*1044 net67
*1045 net68
*1046 net69
*1047 net7
*1048 net70
*1049 net71
*1050 net72
*1051 net73
*1052 net74
*1053 net75
*1054 net76
*1055 net77
*1056 net78
*1057 net79
*1058 net8
*1059 net80
*1060 net81
*1061 net82
*1062 net83
*1063 net84
*1064 net85
*1065 net86
*1066 net87
*1067 net88
*1068 net89
*1069 net9
*1070 net90
*1071 net91
*1072 net92
*1073 net93
*1074 net94
*1075 net95
*1076 net96
*1077 net97
*1078 net98
*1079 net99
*1080 rd_addr\[0\]
*1081 rd_addr\[10\]
*1082 rd_addr\[11\]
*1083 rd_addr\[12\]
*1084 rd_addr\[13\]
*1085 rd_addr\[14\]
*1086 rd_addr\[15\]
*1087 rd_addr\[16\]
*1088 rd_addr\[17\]
*1089 rd_addr\[18\]
*1090 rd_addr\[19\]
*1091 rd_addr\[1\]
*1092 rd_addr\[20\]
*1093 rd_addr\[21\]
*1094 rd_addr\[22\]
*1095 rd_addr\[23\]
*1096 rd_addr\[2\]
*1097 rd_addr\[3\]
*1098 rd_addr\[4\]
*1099 rd_addr\[5\]
*1100 rd_addr\[6\]
*1101 rd_addr\[7\]
*1102 rd_addr\[8\]
*1103 rd_addr\[9\]
*1104 rd_inc
*1105 rd_valid
*1106 rd_wait
*1107 softreset
*1108 state\[0\]
*1109 state\[10\]
*1110 state\[11\]
*1111 state\[12\]
*1112 state\[1\]
*1113 state\[2\]
*1114 state\[3\]
*1115 state\[4\]
*1116 state\[5\]
*1117 state\[6\]
*1118 state\[7\]
*1119 state\[8\]
*1120 state\[9\]
*1121 xfer\.count\[0\]
*1122 xfer\.count\[1\]
*1123 xfer\.count\[2\]
*1124 xfer\.count\[3\]
*1125 xfer\.din_data\[0\]
*1126 xfer\.din_data\[1\]
*1127 xfer\.din_data\[2\]
*1128 xfer\.din_data\[3\]
*1129 xfer\.din_data\[4\]
*1130 xfer\.din_data\[5\]
*1131 xfer\.din_data\[6\]
*1132 xfer\.din_data\[7\]
*1133 xfer\.din_qspi
*1134 xfer\.din_rd
*1135 xfer\.din_tag\[0\]
*1136 xfer\.din_tag\[1\]
*1137 xfer\.din_tag\[2\]
*1138 xfer\.din_valid
*1139 xfer\.dout_data\[0\]
*1140 xfer\.dout_data\[1\]
*1141 xfer\.dout_data\[2\]
*1142 xfer\.dout_data\[3\]
*1143 xfer\.dout_data\[4\]
*1144 xfer\.dout_data\[5\]
*1145 xfer\.dout_data\[6\]
*1146 xfer\.dout_data\[7\]
*1147 xfer\.dout_tag\[0\]
*1148 xfer\.dout_tag\[1\]
*1149 xfer\.dout_tag\[2\]
*1150 xfer\.dummy_count\[0\]
*1151 xfer\.dummy_count\[1\]
*1152 xfer\.dummy_count\[2\]
*1153 xfer\.dummy_count\[3\]
*1154 xfer\.fetch
*1155 xfer\.flash_clk
*1156 xfer\.flash_csb
*1157 xfer\.flash_io0_do
*1158 xfer\.flash_io1_do
*1159 xfer\.flash_io2_do
*1160 xfer\.flash_io3_do
*1161 xfer\.last_fetch
*1162 xfer\.obuffer\[0\]
*1163 xfer\.obuffer\[1\]
*1164 xfer\.obuffer\[2\]
*1165 xfer\.obuffer\[3\]
*1166 xfer\.obuffer\[4\]
*1167 xfer\.obuffer\[5\]
*1168 xfer\.obuffer\[6\]
*1169 xfer\.obuffer\[7\]
*1170 xfer\.resetn
*1171 xfer\.xfer_ddr
*1172 xfer\.xfer_ddr_q
*1173 xfer\.xfer_dspi
*1174 xfer\.xfer_qspi
*1175 xfer\.xfer_rd
*1176 xfer\.xfer_tag\[0\]
*1177 xfer\.xfer_tag\[1\]
*1178 xfer\.xfer_tag\[2\]
*1179 xfer_io0_90
*1180 xfer_io1_90
*1181 xfer_io2_90
*1182 xfer_io3_90
*1183 ANTENNA__0766__A
*1184 ANTENNA__0766__B
*1185 ANTENNA__0767__B
*1186 ANTENNA__0768__B
*1187 ANTENNA__0770__B
*1188 ANTENNA__0771__B
*1189 ANTENNA__0772__B
*1190 ANTENNA__0773__B
*1191 ANTENNA__0774__D
*1192 ANTENNA__0775__B
*1193 ANTENNA__0776__A
*1194 ANTENNA__0777__A
*1195 ANTENNA__0778__B_N
*1196 ANTENNA__0780__B
*1197 ANTENNA__0783__A_N
*1198 ANTENNA__0783__B
*1199 ANTENNA__0784__A
*1200 ANTENNA__0786__A
*1201 ANTENNA__0787__A1_N
*1202 ANTENNA__0787__B1
*1203 ANTENNA__0788__A
*1204 ANTENNA__0791__A2
*1205 ANTENNA__0791__B2
*1206 ANTENNA__0792__A_N
*1207 ANTENNA__0792__B
*1208 ANTENNA__0798__D_N
*1209 ANTENNA__0799__B
*1210 ANTENNA__0800__B
*1211 ANTENNA__0801__B
*1212 ANTENNA__0802__B
*1213 ANTENNA__0803__C_N
*1214 ANTENNA__0803__D_N
*1215 ANTENNA__0805__A_N
*1216 ANTENNA__0805__B
*1217 ANTENNA__0807__A
*1218 ANTENNA__0808__A2
*1219 ANTENNA__0809__A2
*1220 ANTENNA__0810__B
*1221 ANTENNA__0811__A2
*1222 ANTENNA__0811__B1
*1223 ANTENNA__0814__A
*1224 ANTENNA__0821__A
*1225 ANTENNA__0822__A
*1226 ANTENNA__0823__A
*1227 ANTENNA__0825__A
*1228 ANTENNA__0827__A3
*1229 ANTENNA__0827__B1
*1230 ANTENNA__0828__C
*1231 ANTENNA__0829__A
*1232 ANTENNA__0830__A
*1233 ANTENNA__0830__D
*1234 ANTENNA__0833__A
*1235 ANTENNA__0834__B1
*1236 ANTENNA__0835__D
*1237 ANTENNA__0836__A
*1238 ANTENNA__0840__B
*1239 ANTENNA__0841__A
*1240 ANTENNA__0843__B1
*1241 ANTENNA__0844__A0
*1242 ANTENNA__0844__S
*1243 ANTENNA__0845__A
*1244 ANTENNA__0848__A
*1245 ANTENNA__0850__A
*1246 ANTENNA__0852__A
*1247 ANTENNA__0852__B
*1248 ANTENNA__0853__B1
*1249 ANTENNA__0854__B1
*1250 ANTENNA__0859__B1
*1251 ANTENNA__0860__A
*1252 ANTENNA__0861__B
*1253 ANTENNA__0871__A
*1254 ANTENNA__0871__B
*1255 ANTENNA__0876__A
*1256 ANTENNA__0877__A
*1257 ANTENNA__0883__C
*1258 ANTENNA__0884__A
*1259 ANTENNA__0887__A
*1260 ANTENNA__0888__B
*1261 ANTENNA__0889__A1
*1262 ANTENNA__0890__A
*1263 ANTENNA__0890__B
*1264 ANTENNA__0893__B
*1265 ANTENNA__0896__B
*1266 ANTENNA__0905__A1
*1267 ANTENNA__0908__A
*1268 ANTENNA__0908__B
*1269 ANTENNA__0909__A
*1270 ANTENNA__0910__A2
*1271 ANTENNA__0910__A3
*1272 ANTENNA__0910__B1
*1273 ANTENNA__0914__C
*1274 ANTENNA__0915__A
*1275 ANTENNA__0916__A
*1276 ANTENNA__0917__A1
*1277 ANTENNA__0917__A2
*1278 ANTENNA__0921__A2
*1279 ANTENNA__0921__B1
*1280 ANTENNA__0924__B
*1281 ANTENNA__0927__S
*1282 ANTENNA__0928__A
*1283 ANTENNA__0934__A_N
*1284 ANTENNA__0934__B
*1285 ANTENNA__0934__C
*1286 ANTENNA__0936__A
*1287 ANTENNA__0936__B
*1288 ANTENNA__0938__A_N
*1289 ANTENNA__0938__B
*1290 ANTENNA__0938__C
*1291 ANTENNA__0941__A
*1292 ANTENNA__0943__B2
*1293 ANTENNA__0948__A2
*1294 ANTENNA__0948__A3
*1295 ANTENNA__0948__B2
*1296 ANTENNA__0950__A
*1297 ANTENNA__0951__A2
*1298 ANTENNA__0952__A
*1299 ANTENNA__0954__B
*1300 ANTENNA__0955__A1
*1301 ANTENNA__0955__B1
*1302 ANTENNA__0956__A1
*1303 ANTENNA__0956__B1
*1304 ANTENNA__0958__A
*1305 ANTENNA__0959__A_N
*1306 ANTENNA__0959__B
*1307 ANTENNA__0959__C
*1308 ANTENNA__0959__D
*1309 ANTENNA__0960__A1
*1310 ANTENNA__0962__A
*1311 ANTENNA__0963__A2
*1312 ANTENNA__0963__B2
*1313 ANTENNA__0967__A2
*1314 ANTENNA__0968__A
*1315 ANTENNA__0969__A1
*1316 ANTENNA__0969__B1
*1317 ANTENNA__0970__B2
*1318 ANTENNA__0971__A
*1319 ANTENNA__0972__B
*1320 ANTENNA__0973__A1
*1321 ANTENNA__0973__D1
*1322 ANTENNA__0974__A2
*1323 ANTENNA__0974__B2
*1324 ANTENNA__0974__C1
*1325 ANTENNA__0975__A
*1326 ANTENNA__0976__A2
*1327 ANTENNA__0976__C1
*1328 ANTENNA__0977__B
*1329 ANTENNA__0978__B
*1330 ANTENNA__0981__B
*1331 ANTENNA__0982__A1
*1332 ANTENNA__0982__B1
*1333 ANTENNA__0982__C1
*1334 ANTENNA__0983__A1
*1335 ANTENNA__0983__B2
*1336 ANTENNA__0985__A
*1337 ANTENNA__0985__B
*1338 ANTENNA__0987__C1
*1339 ANTENNA__0989__A
*1340 ANTENNA__0990__A_N
*1341 ANTENNA__0990__D
*1342 ANTENNA__0991__A2
*1343 ANTENNA__0991__A3
*1344 ANTENNA__0993__A
*1345 ANTENNA__0994__B
*1346 ANTENNA__0995__B2
*1347 ANTENNA__0997__S
*1348 ANTENNA__0999__A1
*1349 ANTENNA__0999__S
*1350 ANTENNA__1003__A
*1351 ANTENNA__1004__A
*1352 ANTENNA__1005__A
*1353 ANTENNA__1007__C
*1354 ANTENNA__1009__A1
*1355 ANTENNA__1009__A2
*1356 ANTENNA__1009__A3
*1357 ANTENNA__1012__A
*1358 ANTENNA__1013__B
*1359 ANTENNA__1013__C
*1360 ANTENNA__1013__D
*1361 ANTENNA__1019__S
*1362 ANTENNA__1020__A0
*1363 ANTENNA__1020__S
*1364 ANTENNA__1021__A
*1365 ANTENNA__1022__A
*1366 ANTENNA__1024__S
*1367 ANTENNA__1025__A0
*1368 ANTENNA__1025__S
*1369 ANTENNA__1026__A
*1370 ANTENNA__1027__A
*1371 ANTENNA__1027__C
*1372 ANTENNA__1029__S
*1373 ANTENNA__1030__A0
*1374 ANTENNA__1030__S
*1375 ANTENNA__1031__A
*1376 ANTENNA__1032__A
*1377 ANTENNA__1032__C
*1378 ANTENNA__1034__S
*1379 ANTENNA__1035__A0
*1380 ANTENNA__1035__S
*1381 ANTENNA__1036__A
*1382 ANTENNA__1037__B
*1383 ANTENNA__1038__B
*1384 ANTENNA__1040__A0
*1385 ANTENNA__1040__S
*1386 ANTENNA__1042__A0
*1387 ANTENNA__1042__S
*1388 ANTENNA__1044__A0
*1389 ANTENNA__1044__S
*1390 ANTENNA__1046__A0
*1391 ANTENNA__1046__S
*1392 ANTENNA__1048__A0
*1393 ANTENNA__1048__S
*1394 ANTENNA__1050__A0
*1395 ANTENNA__1050__S
*1396 ANTENNA__1052__A0
*1397 ANTENNA__1052__S
*1398 ANTENNA__1054__A0
*1399 ANTENNA__1054__S
*1400 ANTENNA__1058__C1
*1401 ANTENNA__1059__A1
*1402 ANTENNA__1059__C1
*1403 ANTENNA__1060__A2
*1404 ANTENNA__1060__B1
*1405 ANTENNA__1061__B
*1406 ANTENNA__1063__A1
*1407 ANTENNA__1063__S
*1408 ANTENNA__1065__A1
*1409 ANTENNA__1065__S
*1410 ANTENNA__1067__A1
*1411 ANTENNA__1067__S
*1412 ANTENNA__1069__A1
*1413 ANTENNA__1069__S
*1414 ANTENNA__1071__A1
*1415 ANTENNA__1071__S
*1416 ANTENNA__1073__A1
*1417 ANTENNA__1073__S
*1418 ANTENNA__1075__A1
*1419 ANTENNA__1075__S
*1420 ANTENNA__1077__A1
*1421 ANTENNA__1077__S
*1422 ANTENNA__1079__A2
*1423 ANTENNA__1080__A2
*1424 ANTENNA__1081__S
*1425 ANTENNA__1083__A
*1426 ANTENNA__1083__B
*1427 ANTENNA__1084__A2
*1428 ANTENNA__1084__B1
*1429 ANTENNA__1085__S
*1430 ANTENNA__1086__S
*1431 ANTENNA__1088__A2
*1432 ANTENNA__1088__B1
*1433 ANTENNA__1089__S
*1434 ANTENNA__1090__S
*1435 ANTENNA__1092__A
*1436 ANTENNA__1093__A1
*1437 ANTENNA__1093__B2
*1438 ANTENNA__1094__A2
*1439 ANTENNA__1095__S
*1440 ANTENNA__1096__S
*1441 ANTENNA__1098__A1
*1442 ANTENNA__1098__B1
*1443 ANTENNA__1099__A2
*1444 ANTENNA__1100__S
*1445 ANTENNA__1101__S
*1446 ANTENNA__1103__A1
*1447 ANTENNA__1103__B1
*1448 ANTENNA__1104__A2
*1449 ANTENNA__1105__S
*1450 ANTENNA__1106__S
*1451 ANTENNA__1108__A1
*1452 ANTENNA__1108__B1
*1453 ANTENNA__1109__A2
*1454 ANTENNA__1110__A2
*1455 ANTENNA__1111__S
*1456 ANTENNA__1114__A
*1457 ANTENNA__1116__B
*1458 ANTENNA__1117__A
*1459 ANTENNA__1119__B
*1460 ANTENNA__1120__B
*1461 ANTENNA__1121__C_N
*1462 ANTENNA__1122__A2
*1463 ANTENNA__1124__A2
*1464 ANTENNA__1124__B1
*1465 ANTENNA__1125__A1
*1466 ANTENNA__1129__C
*1467 ANTENNA__1131__S
*1468 ANTENNA__1133__S
*1469 ANTENNA__1135__S
*1470 ANTENNA__1137__S
*1471 ANTENNA__1140__S
*1472 ANTENNA__1142__S
*1473 ANTENNA__1144__S
*1474 ANTENNA__1146__S
*1475 ANTENNA__1148__A
*1476 ANTENNA__1149__A
*1477 ANTENNA__1151__S
*1478 ANTENNA__1153__S
*1479 ANTENNA__1155__A1
*1480 ANTENNA__1155__S
*1481 ANTENNA__1157__S
*1482 ANTENNA__1159__A1
*1483 ANTENNA__1159__S
*1484 ANTENNA__1161__A1
*1485 ANTENNA__1161__S
*1486 ANTENNA__1163__A1
*1487 ANTENNA__1163__S
*1488 ANTENNA__1165__A1
*1489 ANTENNA__1165__S
*1490 ANTENNA__1168__S
*1491 ANTENNA__1170__S
*1492 ANTENNA__1172__S
*1493 ANTENNA__1174__S
*1494 ANTENNA__1176__S
*1495 ANTENNA__1178__S
*1496 ANTENNA__1180__S
*1497 ANTENNA__1182__A1
*1498 ANTENNA__1182__S
*1499 ANTENNA__1184__A0
*1500 ANTENNA__1184__S
*1501 ANTENNA__1186__A0
*1502 ANTENNA__1186__S
*1503 ANTENNA__1188__A0
*1504 ANTENNA__1190__A0
*1505 ANTENNA__1192__A0
*1506 ANTENNA__1194__A0
*1507 ANTENNA__1196__A0
*1508 ANTENNA__1198__A0
*1509 ANTENNA__1201__C1
*1510 ANTENNA__1202__C
*1511 ANTENNA__1205__C_N
*1512 ANTENNA__1207__A
*1513 ANTENNA__1207__B
*1514 ANTENNA__1209__B
*1515 ANTENNA__1210__A2
*1516 ANTENNA__1210__B1
*1517 ANTENNA__1211__A2
*1518 ANTENNA__1211__B1
*1519 ANTENNA__1212__A2
*1520 ANTENNA__1212__B1
*1521 ANTENNA__1213__A
*1522 ANTENNA__1215__A
*1523 ANTENNA__1218__B
*1524 ANTENNA__1219__A1
*1525 ANTENNA__1219__A2
*1526 ANTENNA__1219__B1
*1527 ANTENNA__1219__C1
*1528 ANTENNA__1220__A1
*1529 ANTENNA__1220__A2
*1530 ANTENNA__1220__B2
*1531 ANTENNA__1222__A
*1532 ANTENNA__1222__B
*1533 ANTENNA__1225__A1
*1534 ANTENNA__1225__A2
*1535 ANTENNA__1225__B1_N
*1536 ANTENNA__1226__A1
*1537 ANTENNA__1226__A2
*1538 ANTENNA__1226__B2
*1539 ANTENNA__1226__C1
*1540 ANTENNA__1228__A1
*1541 ANTENNA__1228__A2
*1542 ANTENNA__1228__A3
*1543 ANTENNA__1229__A
*1544 ANTENNA__1230__A2
*1545 ANTENNA__1230__A3
*1546 ANTENNA__1231__A3
*1547 ANTENNA__1232__A1
*1548 ANTENNA__1232__A2
*1549 ANTENNA__1232__B1
*1550 ANTENNA__1232__B2
*1551 ANTENNA__1233__A1
*1552 ANTENNA__1233__A2
*1553 ANTENNA__1233__A3
*1554 ANTENNA__1233__B2
*1555 ANTENNA__1235__A1
*1556 ANTENNA__1237__A1
*1557 ANTENNA__1237__B2
*1558 ANTENNA__1237__C1
*1559 ANTENNA__1238__A1
*1560 ANTENNA__1238__A2
*1561 ANTENNA__1238__B2
*1562 ANTENNA__1239__A1
*1563 ANTENNA__1239__A2
*1564 ANTENNA__1239__A3
*1565 ANTENNA__1240__A2
*1566 ANTENNA__1241__A_N
*1567 ANTENNA__1241__B
*1568 ANTENNA__1241__C
*1569 ANTENNA__1242__A1
*1570 ANTENNA__1242__A2
*1571 ANTENNA__1242__B2
*1572 ANTENNA__1243__A1
*1573 ANTENNA__1243__B1
*1574 ANTENNA__1244__A1
*1575 ANTENNA__1246__A1
*1576 ANTENNA__1246__C1
*1577 ANTENNA__1247__A1
*1578 ANTENNA__1247__A2
*1579 ANTENNA__1247__B2
*1580 ANTENNA__1248__A1
*1581 ANTENNA__1248__A3
*1582 ANTENNA__1249__B1
*1583 ANTENNA__1250__A1
*1584 ANTENNA__1250__A2
*1585 ANTENNA__1250__B1
*1586 ANTENNA__1250__B2
*1587 ANTENNA__1251__A1
*1588 ANTENNA__1251__B2
*1589 ANTENNA__1252__A
*1590 ANTENNA__1253__A1
*1591 ANTENNA__1255__A1
*1592 ANTENNA__1255__A2
*1593 ANTENNA__1255__B2
*1594 ANTENNA__1256__A1
*1595 ANTENNA__1256__A3
*1596 ANTENNA__1257__B1
*1597 ANTENNA__1258__A1
*1598 ANTENNA__1258__S
*1599 ANTENNA__1259__A
*1600 ANTENNA__1259__B
*1601 ANTENNA__1261__A1
*1602 ANTENNA__1261__A2
*1603 ANTENNA__1261__A3
*1604 ANTENNA__1262__A
*1605 ANTENNA__1264__A1
*1606 ANTENNA__1264__S
*1607 ANTENNA__1265__A
*1608 ANTENNA__1265__B
*1609 ANTENNA__1268__B
*1610 ANTENNA__1268__C
*1611 ANTENNA__1270__A1
*1612 ANTENNA__1272__A1
*1613 ANTENNA__1274__A1
*1614 ANTENNA__1276__A1
*1615 ANTENNA__1278__A1
*1616 ANTENNA__1280__A1
*1617 ANTENNA__1282__A1
*1618 ANTENNA__1284__A1
*1619 ANTENNA__1288__B1
*1620 ANTENNA__1289__A
*1621 ANTENNA__1290__A2
*1622 ANTENNA__1290__B1
*1623 ANTENNA__1291__A1
*1624 ANTENNA__1291__A3
*1625 ANTENNA__1292__A
*1626 ANTENNA__1292__B
*1627 ANTENNA__1293__A1
*1628 ANTENNA__1293__A2
*1629 ANTENNA__1293__B2
*1630 ANTENNA__1294__1_A
*1631 ANTENNA__1295__2_A
*1632 ANTENNA__1296__3_A
*1633 ANTENNA__1297__4_A
*1634 ANTENNA__1298__A0
*1635 ANTENNA__1298__S
*1636 ANTENNA__1301__A
*1637 ANTENNA__1302__A0
*1638 ANTENNA__1302__S
*1639 ANTENNA__1303__A
*1640 ANTENNA__1305__A0
*1641 ANTENNA__1305__S
*1642 ANTENNA__1306__A
*1643 ANTENNA__1308__A0
*1644 ANTENNA__1308__S
*1645 ANTENNA__1309__A
*1646 ANTENNA__1311__A0
*1647 ANTENNA__1311__S
*1648 ANTENNA__1312__A
*1649 ANTENNA__1314__A0
*1650 ANTENNA__1314__S
*1651 ANTENNA__1315__A
*1652 ANTENNA__1317__A0
*1653 ANTENNA__1317__S
*1654 ANTENNA__1318__A
*1655 ANTENNA__1320__A0
*1656 ANTENNA__1320__S
*1657 ANTENNA__1324__A
*1658 ANTENNA__1327__A
*1659 ANTENNA__1330__A
*1660 ANTENNA__1333__A
*1661 ANTENNA__1336__A
*1662 ANTENNA__1339__A
*1663 ANTENNA__1341__A0
*1664 ANTENNA__1342__A
*1665 ANTENNA__1344__A0
*1666 ANTENNA__1345__A
*1667 ANTENNA__1347__A0
*1668 ANTENNA__1348__A
*1669 ANTENNA__1350__A0
*1670 ANTENNA__1351__A
*1671 ANTENNA__1353__C
*1672 ANTENNA__1354__B
*1673 ANTENNA__1356__A
*1674 ANTENNA__1357__A0
*1675 ANTENNA__1357__A1
*1676 ANTENNA__1357__S
*1677 ANTENNA__1358__B1
*1678 ANTENNA__1359__A
*1679 ANTENNA__1360__A1
*1680 ANTENNA__1360__S
*1681 ANTENNA__1362__A0
*1682 ANTENNA__1362__A1
*1683 ANTENNA__1362__S
*1684 ANTENNA__1363__A1
*1685 ANTENNA__1363__S
*1686 ANTENNA__1365__A1
*1687 ANTENNA__1365__A2
*1688 ANTENNA__1365__B1
*1689 ANTENNA__1365__B2
*1690 ANTENNA__1366__A1
*1691 ANTENNA__1366__A2
*1692 ANTENNA__1367__A1
*1693 ANTENNA__1367__S
*1694 ANTENNA__1369__A1
*1695 ANTENNA__1369__A2
*1696 ANTENNA__1369__B1
*1697 ANTENNA__1369__B2
*1698 ANTENNA__1370__A1
*1699 ANTENNA__1370__A2
*1700 ANTENNA__1371__A1
*1701 ANTENNA__1371__S
*1702 ANTENNA__1373__A1
*1703 ANTENNA__1373__A2
*1704 ANTENNA__1373__B1
*1705 ANTENNA__1373__B2
*1706 ANTENNA__1374__A1
*1707 ANTENNA__1374__A2
*1708 ANTENNA__1375__A1
*1709 ANTENNA__1375__S
*1710 ANTENNA__1377__A1
*1711 ANTENNA__1377__A2
*1712 ANTENNA__1377__B1
*1713 ANTENNA__1377__B2
*1714 ANTENNA__1378__A1
*1715 ANTENNA__1378__A2
*1716 ANTENNA__1379__A1
*1717 ANTENNA__1379__S
*1718 ANTENNA__1381__A1
*1719 ANTENNA__1381__A2
*1720 ANTENNA__1381__B1
*1721 ANTENNA__1381__B2
*1722 ANTENNA__1382__A1
*1723 ANTENNA__1382__A2
*1724 ANTENNA__1383__A1
*1725 ANTENNA__1383__S
*1726 ANTENNA__1385__A1
*1727 ANTENNA__1385__A2
*1728 ANTENNA__1385__B1
*1729 ANTENNA__1385__B2
*1730 ANTENNA__1386__A1
*1731 ANTENNA__1386__A2
*1732 ANTENNA__1387__A1
*1733 ANTENNA__1387__S
*1734 ANTENNA__1389__A2
*1735 ANTENNA__1389__B1
*1736 ANTENNA__1390__A2
*1737 ANTENNA__1390__B1
*1738 ANTENNA__1390__B2
*1739 ANTENNA__1391__A
*1740 ANTENNA__1392__A
*1741 ANTENNA__1393__C
*1742 ANTENNA__1395__A1
*1743 ANTENNA__1396__A
*1744 ANTENNA__1397__B1
*1745 ANTENNA__1398__C
*1746 ANTENNA__1402__B1
*1747 ANTENNA__1403__C
*1748 ANTENNA__1406__A3
*1749 ANTENNA__1406__B1
*1750 ANTENNA__1409__A
*1751 ANTENNA__1411__A2
*1752 ANTENNA__1412__A1
*1753 ANTENNA__1412__A2
*1754 ANTENNA__1413__A2
*1755 ANTENNA__1413__B2
*1756 ANTENNA__1415__A
*1757 ANTENNA__1415__B
*1758 ANTENNA__1417__A
*1759 ANTENNA__1420__A1
*1760 ANTENNA__1420__C1
*1761 ANTENNA__1421__A2
*1762 ANTENNA__1422__A1
*1763 ANTENNA__1422__A2