*SPEF "ieee 1481-1999"
*DESIGN "simpleuart"
*DATE "11:11:11 Fri 11 11, 1111"
*VENDOR "OpenRCX"
*PROGRAM "Parallel Extraction"
*VERSION "1.0"
*DESIGN_FLOW "NAME_SCOPE LOCAL" "PIN_CAP NONE"
*DIVIDER /
*DELIMITER :
*BUS_DELIMITER []
*T_UNIT 1 NS
*C_UNIT 1 PF
*R_UNIT 1 OHM
*L_UNIT 1 HENRY

*NAME_MAP
*3 clk
*4 reg_dat_di[0]
*5 reg_dat_di[10]
*6 reg_dat_di[11]
*7 reg_dat_di[12]
*8 reg_dat_di[13]
*9 reg_dat_di[14]
*10 reg_dat_di[15]
*11 reg_dat_di[16]
*12 reg_dat_di[17]
*13 reg_dat_di[18]
*14 reg_dat_di[19]
*15 reg_dat_di[1]
*16 reg_dat_di[20]
*17 reg_dat_di[21]
*18 reg_dat_di[22]
*19 reg_dat_di[23]
*20 reg_dat_di[24]
*21 reg_dat_di[25]
*22 reg_dat_di[26]
*23 reg_dat_di[27]
*24 reg_dat_di[28]
*25 reg_dat_di[29]
*26 reg_dat_di[2]
*27 reg_dat_di[30]
*28 reg_dat_di[31]
*29 reg_dat_di[3]
*30 reg_dat_di[4]
*31 reg_dat_di[5]
*32 reg_dat_di[6]
*33 reg_dat_di[7]
*34 reg_dat_di[8]
*35 reg_dat_di[9]
*36 reg_dat_do[0]
*37 reg_dat_do[10]
*38 reg_dat_do[11]
*39 reg_dat_do[12]
*40 reg_dat_do[13]
*41 reg_dat_do[14]
*42 reg_dat_do[15]
*43 reg_dat_do[16]
*44 reg_dat_do[17]
*45 reg_dat_do[18]
*46 reg_dat_do[19]
*47 reg_dat_do[1]
*48 reg_dat_do[20]
*49 reg_dat_do[21]
*50 reg_dat_do[22]
*51 reg_dat_do[23]
*52 reg_dat_do[24]
*53 reg_dat_do[25]
*54 reg_dat_do[26]
*55 reg_dat_do[27]
*56 reg_dat_do[28]
*57 reg_dat_do[29]
*58 reg_dat_do[2]
*59 reg_dat_do[30]
*60 reg_dat_do[31]
*61 reg_dat_do[3]
*62 reg_dat_do[4]
*63 reg_dat_do[5]
*64 reg_dat_do[6]
*65 reg_dat_do[7]
*66 reg_dat_do[8]
*67 reg_dat_do[9]
*68 reg_dat_re
*69 reg_dat_wait
*70 reg_dat_we
*71 reg_div_di[0]
*72 reg_div_di[10]
*73 reg_div_di[11]
*74 reg_div_di[12]
*75 reg_div_di[13]
*76 reg_div_di[14]
*77 reg_div_di[15]
*78 reg_div_di[16]
*79 reg_div_di[17]
*80 reg_div_di[18]
*81 reg_div_di[19]
*82 reg_div_di[1]
*83 reg_div_di[20]
*84 reg_div_di[21]
*85 reg_div_di[22]
*86 reg_div_di[23]
*87 reg_div_di[24]
*88 reg_div_di[25]
*89 reg_div_di[26]
*90 reg_div_di[27]
*91 reg_div_di[28]
*92 reg_div_di[29]
*93 reg_div_di[2]
*94 reg_div_di[30]
*95 reg_div_di[31]
*96 reg_div_di[3]
*97 reg_div_di[4]
*98 reg_div_di[5]
*99 reg_div_di[6]
*100 reg_div_di[7]
*101 reg_div_di[8]
*102 reg_div_di[9]
*103 reg_div_do[0]
*104 reg_div_do[10]
*105 reg_div_do[11]
*106 reg_div_do[12]
*107 reg_div_do[13]
*108 reg_div_do[14]
*109 reg_div_do[15]
*110 reg_div_do[16]
*111 reg_div_do[17]
*112 reg_div_do[18]
*113 reg_div_do[19]
*114 reg_div_do[1]
*115 reg_div_do[20]
*116 reg_div_do[21]
*117 reg_div_do[22]
*118 reg_div_do[23]
*119 reg_div_do[24]
*120 reg_div_do[25]
*121 reg_div_do[26]
*122 reg_div_do[27]
*123 reg_div_do[28]
*124 reg_div_do[29]
*125 reg_div_do[2]
*126 reg_div_do[30]
*127 reg_div_do[31]
*128 reg_div_do[3]
*129 reg_div_do[4]
*130 reg_div_do[5]
*131 reg_div_do[6]
*132 reg_div_do[7]
*133 reg_div_do[8]
*134 reg_div_do[9]
*135 reg_div_we[0]
*136 reg_div_we[1]
*137 reg_div_we[2]
*138 reg_div_we[3]
*139 resetn
*140 ser_rx
*141 ser_tx
*142 _0000_
*143 _0001_
*144 _0002_
*145 _0003_
*146 _0004_
*147 _0005_
*148 _0006_
*149 _0007_
*150 _0008_
*151 _0009_
*152 _0010_
*153 _0011_
*154 _0012_
*155 _0013_
*156 _0014_
*157 _0015_
*158 _0016_
*159 _0017_
*160 _0018_
*161 _0019_
*162 _0020_
*163 _0021_
*164 _0022_
*165 _0023_
*166 _0024_
*167 _0025_
*168 _0026_
*169 _0027_
*170 _0028_
*171 _0029_
*172 _0030_
*173 _0031_
*174 _0032_
*175 _0033_
*176 _0034_
*177 _0035_
*178 _0036_
*179 _0037_
*180 _0038_
*181 _0039_
*182 _0040_
*183 _0041_
*184 _0042_
*185 _0043_
*186 _0044_
*187 _0045_
*188 _0046_
*189 _0047_
*190 _0048_
*191 _0049_
*192 _0050_
*193 _0051_
*194 _0052_
*195 _0053_
*196 _0054_
*197 _0055_
*198 _0056_
*199 _0057_
*200 _0058_
*201 _0059_
*202 _0060_
*203 _0061_
*204 _0062_
*205 _0063_
*206 _0064_
*207 _0065_
*208 _0066_
*209 _0067_
*210 _0068_
*211 _0069_
*212 _0070_
*213 _0071_
*214 _0072_
*215 _0073_
*216 _0074_
*217 _0075_
*218 _0076_
*219 _0077_
*220 _0078_
*221 _0079_
*222 _0080_
*223 _0081_
*224 _0082_
*225 _0083_
*226 _0084_
*227 _0085_
*228 _0086_
*229 _0087_
*230 _0088_
*231 _0089_
*232 _0090_
*233 _0091_
*234 _0092_
*235 _0093_
*236 _0094_
*237 _0095_
*238 _0096_
*239 _0097_
*240 _0098_
*241 _0099_
*242 _0100_
*243 _0101_
*244 _0102_
*245 _0103_
*246 _0104_
*247 _0105_
*248 _0106_
*249 _0107_
*250 _0108_
*251 _0109_
*252 _0110_
*253 _0111_
*254 _0112_
*255 _0113_
*256 _0114_
*257 _0115_
*258 _0116_
*259 _0117_
*260 _0118_
*261 _0119_
*262 _0120_
*263 _0121_
*264 _0122_
*265 _0123_
*266 _0124_
*267 _0125_
*268 _0126_
*269 _0127_
*270 _0128_
*271 _0129_
*272 _0130_
*273 _0131_
*274 _0132_
*275 _0133_
*276 _0134_
*277 _0135_
*278 _0136_
*279 _0137_
*280 _0138_
*281 _0139_
*282 _0140_
*283 _0141_
*284 _0142_
*285 _0143_
*286 _0144_
*287 _0145_
*288 _0146_
*289 _0147_
*290 _0148_
*291 _0149_
*292 _0150_
*293 _0151_
*294 _0152_
*295 _0153_
*296 _0154_
*297 _0155_
*298 _0156_
*299 _0157_
*300 _0158_
*301 _0159_
*302 _0160_
*303 _0161_
*304 _0162_
*305 _0163_
*306 _0164_
*307 _0165_
*308 _0166_
*309 _0167_
*310 _0168_
*311 _0169_
*312 _0170_
*313 _0171_
*314 _0172_
*315 _0173_
*316 _0174_
*317 _0175_
*318 _0176_
*319 _0177_
*320 _0178_
*321 _0179_
*322 _0180_
*323 _0181_
*324 _0182_
*325 _0183_
*326 _0184_
*327 _0185_
*328 _0186_
*329 _0187_
*330 _0188_
*331 _0189_
*332 _0190_
*333 _0191_
*334 _0192_
*335 _0193_
*336 _0194_
*337 _0195_
*338 _0196_
*339 _0197_
*340 _0198_
*341 _0199_
*342 _0200_
*343 _0201_
*344 _0202_
*345 _0203_
*346 _0204_
*347 _0205_
*348 _0206_
*349 _0207_
*350 _0208_
*351 _0209_
*352 _0210_
*353 _0211_
*354 _0212_
*355 _0213_
*356 _0214_
*357 _0215_
*358 _0216_
*359 _0217_
*360 _0218_
*361 _0219_
*362 _0220_
*363 _0221_
*364 _0222_
*365 _0223_
*366 _0224_
*367 _0225_
*368 _0226_
*369 _0227_
*370 _0228_
*371 _0229_
*372 _0230_
*373 _0231_
*374 _0232_
*375 _0233_
*376 _0234_
*377 _0235_
*378 _0236_
*379 _0237_
*380 _0238_
*381 _0239_
*382 _0240_
*383 _0241_
*384 _0242_
*385 _0243_
*386 _0244_
*387 _0245_
*388 _0246_
*389 _0247_
*390 _0248_
*391 _0249_
*392 _0250_
*393 _0251_
*394 _0252_
*395 _0253_
*396 _0254_
*397 _0255_
*398 _0256_
*399 _0257_
*400 _0258_
*401 _0259_
*402 _0260_
*403 _0261_
*404 _0262_
*405 _0263_
*406 _0264_
*407 _0265_
*408 _0266_
*409 _0267_
*410 _0268_
*411 _0269_
*412 _0270_
*413 _0271_
*414 _0272_
*415 _0273_
*416 _0274_
*417 _0275_
*418 _0276_
*419 _0277_
*420 _0278_
*421 _0279_
*422 _0280_
*423 _0281_
*424 _0282_
*425 _0283_
*426 _0284_
*427 _0285_
*428 _0286_
*429 _0287_
*430 _0288_
*431 _0289_
*432 _0290_
*433 _0291_
*434 _0292_
*435 _0293_
*436 _0294_
*437 _0295_
*438 _0296_
*439 _0297_
*440 _0298_
*441 _0299_
*442 _0300_
*443 _0301_
*444 _0302_
*445 _0303_
*446 _0304_
*447 _0305_
*448 _0306_
*449 _0307_
*450 _0308_
*451 _0309_
*452 _0310_
*453 _0311_
*454 _0312_
*455 _0313_
*456 _0314_
*457 _0315_
*458 _0316_
*459 _0317_
*460 _0318_
*461 _0319_
*462 _0320_
*463 _0321_
*464 _0322_
*465 _0323_
*466 _0324_
*467 _0325_
*468 _0326_
*469 _0327_
*470 _0328_
*471 _0329_
*472 _0330_
*473 _0331_
*474 _0332_
*475 _0333_
*476 _0334_
*477 _0335_
*478 _0336_
*479 _0337_
*480 _0338_
*481 _0339_
*482 _0340_
*483 _0341_
*484 _0342_
*485 _0343_
*486 _0344_
*487 _0345_
*488 _0346_
*489 _0347_
*490 _0348_
*491 _0349_
*492 _0350_
*493 _0351_
*494 _0352_
*495 _0353_
*496 _0354_
*497 _0355_
*498 _0356_
*499 _0357_
*500 _0358_
*501 _0359_
*502 _0360_
*503 _0361_
*504 _0362_
*505 _0363_
*506 _0364_
*507 _0365_
*508 _0366_
*509 _0367_
*510 _0368_
*511 _0369_
*512 _0370_
*513 _0371_
*514 _0372_
*515 _0373_
*516 _0374_
*517 _0375_
*518 _0376_
*519 _0377_
*520 _0378_
*521 _0379_
*522 _0380_
*523 _0381_
*524 _0382_
*525 _0383_
*526 _0384_
*527 _0385_
*528 _0386_
*529 _0387_
*530 _0388_
*531 _0389_
*532 _0390_
*533 _0391_
*534 _0392_
*535 _0393_
*536 _0394_
*537 _0395_
*538 _0396_
*539 _0397_
*540 _0398_
*541 _0399_
*542 _0400_
*543 _0401_
*544 _0402_
*545 _0403_
*546 _0404_
*547 _0405_
*548 _0406_
*549 _0407_
*550 _0408_
*551 _0409_
*552 _0410_
*553 _0411_
*554 _0412_
*555 _0413_
*556 _0414_
*557 _0415_
*558 _0416_
*559 _0417_
*560 _0418_
*561 _0419_
*562 _0420_
*563 _0421_
*564 _0422_
*565 _0423_
*566 _0424_
*567 _0425_
*568 _0426_
*569 _0427_
*570 _0428_
*571 _0429_
*572 _0430_
*573 _0431_
*574 _0432_
*575 _0433_
*576 _0434_
*577 _0435_
*578 _0436_
*579 _0437_
*580 _0438_
*581 _0439_
*582 _0440_
*583 _0441_
*584 _0442_
*585 _0443_
*586 _0444_
*587 _0445_
*588 _0446_
*589 _0447_
*590 _0448_
*591 _0449_
*592 _0450_
*593 _0451_
*594 _0452_
*595 _0453_
*596 _0454_
*597 _0455_
*598 _0456_
*599 _0457_
*600 _0458_
*601 _0459_
*602 _0460_
*603 _0461_
*604 _0462_
*605 _0463_
*606 _0464_
*607 _0465_
*608 _0466_
*609 _0467_
*610 _0468_
*611 _0469_
*612 _0470_
*613 _0471_
*614 _0472_
*615 _0473_
*616 _0474_
*617 _0475_
*618 _0476_
*619 _0477_
*620 _0478_
*621 _0479_
*622 _0480_
*623 _0481_
*624 _0482_
*625 _0483_
*626 _0484_
*627 _0485_
*628 _0486_
*629 _0487_
*630 _0488_
*631 _0489_
*632 _0490_
*633 _0491_
*634 _0492_
*635 _0493_
*636 _0494_
*637 _0495_
*638 _0496_
*639 _0497_
*640 _0498_
*641 _0499_
*642 _0500_
*643 _0501_
*644 _0502_
*645 _0503_
*646 _0504_
*647 _0505_
*648 _0506_
*649 _0507_
*650 _0508_
*651 _0509_
*652 _0510_
*653 _0511_
*654 _0512_
*655 _0513_
*656 _0514_
*657 _0515_
*658 _0516_
*659 _0517_
*660 _0518_
*661 _0519_
*662 _0520_
*663 _0521_
*664 _0522_
*665 _0523_
*666 _0524_
*667 _0525_
*668 _0526_
*669 _0527_
*670 _0528_
*671 _0529_
*672 _0530_
*673 _0531_
*674 _0532_
*675 _0533_
*676 _0534_
*677 _0535_
*678 _0536_
*679 _0537_
*680 _0538_
*681 _0539_
*682 _0540_
*683 _0541_
*684 _0542_
*685 _0543_
*686 _0544_
*687 _0545_
*688 _0546_
*689 _0547_
*690 _0548_
*691 _0549_
*692 _0550_
*693 _0551_
*694 _0552_
*695 _0553_
*696 _0554_
*697 _0555_
*698 _0556_
*699 _0557_
*700 _0558_
*701 _0559_
*702 _0560_
*703 _0561_
*704 _0562_
*705 _0563_
*706 _0564_
*707 _0565_
*708 _0566_
*709 _0567_
*710 _0568_
*711 _0569_
*712 _0570_
*713 _0571_
*714 _0572_
*715 _0573_
*716 _0574_
*717 _0575_
*718 _0576_
*719 _0577_
*720 _0578_
*721 _0579_
*722 _0580_
*723 _0581_
*724 _0582_
*725 _0583_
*726 _0584_
*727 _0585_
*728 _0586_
*729 _0587_
*730 _0588_
*731 _0589_
*732 _0590_
*733 _0591_
*734 _0592_
*735 _0593_
*736 _0594_
*737 _0595_
*738 _0596_
*739 _0597_
*740 _0598_
*741 _0599_
*742 _0600_
*743 _0601_
*744 _0602_
*745 _0603_
*746 _0604_
*747 _0605_
*748 _0606_
*749 _0607_
*750 _0608_
*751 _0609_
*752 _0610_
*753 _0611_
*754 _0612_
*755 _0613_
*756 _0614_
*757 _0615_
*758 _0616_
*759 _0617_
*760 _0618_
*761 _0619_
*762 _0620_
*763 _0621_
*764 _0622_
*765 _0623_
*766 _0624_
*767 _0625_
*768 _0626_
*769 _0627_
*770 _0628_
*771 _0629_
*772 _0630_
*773 _0631_
*774 _0632_
*775 _0633_
*776 _0634_
*777 _0635_
*778 _0636_
*779 _0637_
*780 _0638_
*781 _0639_
*782 _0640_
*783 _0641_
*784 _0642_
*785 _0643_
*786 _0644_
*787 _0645_
*788 _0646_
*789 _0647_
*790 _0648_
*791 _0649_
*792 _0650_
*793 _0651_
*794 _0652_
*795 _0653_
*796 _0654_
*797 _0655_
*798 _0656_
*799 _0657_
*800 _0658_
*801 _0659_
*802 _0660_
*803 _0661_
*804 _0662_
*805 _0663_
*806 _0664_
*807 _0665_
*808 _0666_
*809 _0667_
*810 _0668_
*811 _0669_
*812 _0670_
*813 _0671_
*814 _0672_
*815 _0673_
*816 _0674_
*817 _0675_
*818 _0676_
*819 _0677_
*820 _0678_
*821 _0679_
*822 _0680_
*823 _0681_
*824 _0682_
*825 _0683_
*826 _0684_
*827 _0685_
*828 _0686_
*829 _0687_
*830 _0688_
*831 _0689_
*832 _0690_
*833 _0691_
*834 _0692_
*835 _0693_
*836 _0694_
*837 _0695_
*838 _0696_
*839 _0697_
*840 _0698_
*841 _0699_
*842 _0700_
*843 _0701_
*844 _0702_
*845 _0703_
*846 _0704_
*847 _0705_
*848 _0706_
*849 _0707_
*850 _0708_
*851 _0709_
*852 _0710_
*853 _0711_
*854 _0712_
*855 _0713_
*856 _0714_
*857 _0715_
*858 _0716_
*859 _0717_
*860 _0718_
*861 _0719_
*862 _0720_
*863 _0721_
*864 _0722_
*865 _0723_
*866 _0724_
*867 _0725_
*868 _0726_
*869 _0727_
*870 _0728_
*871 _0729_
*872 _0730_
*873 _0731_
*874 _0732_
*875 _0733_
*876 _0734_
*877 _0735_
*878 _0736_
*879 _0737_
*880 _0738_
*881 _0739_
*882 _0740_
*883 _0741_
*884 _0742_
*885 _0743_
*886 _0744_
*887 _0745_
*888 _0746_
*889 _0747_
*890 _0748_
*891 _0749_
*892 _0750_
*893 _0751_
*894 _0752_
*895 _0753_
*896 _0754_
*897 _0755_
*898 _0756_
*899 _0757_
*900 _0758_
*901 _0759_
*902 _0760_
*903 _0761_
*904 _0762_
*905 _0763_
*906 _0764_
*907 _0765_
*908 _0766_
*909 _0767_
*910 _0768_
*911 clknet_0_clk
*912 clknet_4_0_0_clk
*913 clknet_4_10_0_clk
*914 clknet_4_11_0_clk
*915 clknet_4_12_0_clk
*916 clknet_4_13_0_clk
*917 clknet_4_14_0_clk
*918 clknet_4_15_0_clk
*919 clknet_4_1_0_clk
*920 clknet_4_2_0_clk
*921 clknet_4_3_0_clk
*922 clknet_4_4_0_clk
*923 clknet_4_5_0_clk
*924 clknet_4_6_0_clk
*925 clknet_4_7_0_clk
*926 clknet_4_8_0_clk
*927 clknet_4_9_0_clk
*928 net1
*929 net10
*930 net100
*931 net101
*932 net102
*933 net103
*934 net104
*935 net105
*936 net106
*937 net107
*938 net108
*939 net109
*940 net11
*941 net110
*942 net111
*943 net112
*944 net113
*945 net114
*946 net12
*947 net13
*948 net14
*949 net15
*950 net16
*951 net17
*952 net18
*953 net19
*954 net2
*955 net20
*956 net21
*957 net22
*958 net23
*959 net24
*960 net25
*961 net26
*962 net27
*963 net28
*964 net29
*965 net3
*966 net30
*967 net31
*968 net32
*969 net33
*970 net34
*971 net35
*972 net36
*973 net37
*974 net38
*975 net39
*976 net4
*977 net40
*978 net41
*979 net42
*980 net43
*981 net44
*982 net45
*983 net46
*984 net47
*985 net48
*986 net49
*987 net5
*988 net50
*989 net51
*990 net52
*991 net53
*992 net54
*993 net55
*994 net56
*995 net57
*996 net58
*997 net59
*998 net6
*999 net60
*1000 net61
*1001 net62
*1002 net63
*1003 net64
*1004 net65
*1005 net66
*1006 net67
*1007 net68
*1008 net69
*1009 net7
*1010 net70
*1011 net71
*1012 net72
*1013 net73
*1014 net74
*1015 net75
*1016 net76
*1017 net77
*1018 net78
*1019 net79
*1020 net8
*1021 net80
*1022 net81
*1023 net82
*1024 net83
*1025 net84
*1026 net85
*1027 net86
*1028 net87
*1029 net88
*1030 net89
*1031 net9
*1032 net90
*1033 net91
*1034 net92
*1035 net93
*1036 net94
*1037 net95
*1038 net96
*1039 net97
*1040 net98
*1041 net99
*1042 recv_buf_data\[0\]
*1043 recv_buf_data\[1\]
*1044 recv_buf_data\[2\]
*1045 recv_buf_data\[3\]
*1046 recv_buf_data\[4\]
*1047 recv_buf_data\[5\]
*1048 recv_buf_data\[6\]
*1049 recv_buf_data\[7\]
*1050 recv_buf_valid
*1051 recv_divcnt\[0\]
*1052 recv_divcnt\[10\]
*1053 recv_divcnt\[11\]
*1054 recv_divcnt\[12\]
*1055 recv_divcnt\[13\]
*1056 recv_divcnt\[14\]
*1057 recv_divcnt\[15\]
*1058 recv_divcnt\[16\]
*1059 recv_divcnt\[17\]
*1060 recv_divcnt\[18\]
*1061 recv_divcnt\[19\]
*1062 recv_divcnt\[1\]
*1063 recv_divcnt\[20\]
*1064 recv_divcnt\[21\]
*1065 recv_divcnt\[22\]
*1066 recv_divcnt\[23\]
*1067 recv_divcnt\[24\]
*1068 recv_divcnt\[25\]
*1069 recv_divcnt\[26\]
*1070 recv_divcnt\[27\]
*1071 recv_divcnt\[28\]
*1072 recv_divcnt\[29\]
*1073 recv_divcnt\[2\]
*1074 recv_divcnt\[30\]
*1075 recv_divcnt\[31\]
*1076 recv_divcnt\[3\]
*1077 recv_divcnt\[4\]
*1078 recv_divcnt\[5\]
*1079 recv_divcnt\[6\]
*1080 recv_divcnt\[7\]
*1081 recv_divcnt\[8\]
*1082 recv_divcnt\[9\]
*1083 recv_pattern\[0\]
*1084 recv_pattern\[1\]
*1085 recv_pattern\[2\]
*1086 recv_pattern\[3\]
*1087 recv_pattern\[4\]
*1088 recv_pattern\[5\]
*1089 recv_pattern\[6\]
*1090 recv_pattern\[7\]
*1091 recv_state\[0\]
*1092 recv_state\[1\]
*1093 recv_state\[2\]
*1094 recv_state\[3\]
*1095 send_bitcnt\[0\]
*1096 send_bitcnt\[1\]
*1097 send_bitcnt\[2\]
*1098 send_bitcnt\[3\]
*1099 send_divcnt\[0\]
*1100 send_divcnt\[10\]
*1101 send_divcnt\[11\]
*1102 send_divcnt\[12\]
*1103 send_divcnt\[13\]
*1104 send_divcnt\[14\]
*1105 send_divcnt\[15\]
*1106 send_divcnt\[16\]
*1107 send_divcnt\[17\]
*1108 send_divcnt\[18\]
*1109 send_divcnt\[19\]
*1110 send_divcnt\[1\]
*1111 send_divcnt\[20\]
*1112 send_divcnt\[21\]
*1113 send_divcnt\[22\]
*1114 send_divcnt\[23\]
*1115 send_divcnt\[24\]
*1116 send_divcnt\[25\]
*1117 send_divcnt\[26\]
*1118 send_divcnt\[27\]
*1119 send_divcnt\[28\]
*1120 send_divcnt\[29\]
*1121 send_divcnt\[2\]
*1122 send_divcnt\[30\]
*1123 send_divcnt\[31\]
*1124 send_divcnt\[3\]
*1125 send_divcnt\[4\]
*1126 send_divcnt\[5\]
*1127 send_divcnt\[6\]
*1128 send_divcnt\[7\]
*1129 send_divcnt\[8\]
*1130 send_divcnt\[9\]
*1131 send_dummy
*1132 send_pattern\[1\]
*1133 send_pattern\[2\]
*1134 send_pattern\[3\]
*1135 send_pattern\[4\]
*1136 send_pattern\[5\]
*1137 send_pattern\[6\]
*1138 send_pattern\[7\]
*1139 send_pattern\[8\]
*1140 ANTENNA_1
*1141 ANTENNA_2
*1142 ANTENNA_3
*1143 ANTENNA_4
*1144 ANTENNA__0770__A
*1145 ANTENNA__0772__A
*1146 ANTENNA__0774__B
*1147 ANTENNA__0776__B
*1148 ANTENNA__0778__B
*1149 ANTENNA__0780__B
*1150 ANTENNA__0782__B
*1151 ANTENNA__0784__B
*1152 ANTENNA__0786__B
*1153 ANTENNA__0788__B
*1154 ANTENNA__0790__A
*1155 ANTENNA__0796__A
*1156 ANTENNA__0797__A
*1157 ANTENNA__0800__A1
*1158 ANTENNA__0802__A1
*1159 ANTENNA__0802__B2
*1160 ANTENNA__0804__A
*1161 ANTENNA__0806__A
*1162 ANTENNA__0807__A
*1163 ANTENNA__0810__A
*1164 ANTENNA__0811__A
*1165 ANTENNA__0813__A
*1166 ANTENNA__0814__A
*1167 ANTENNA__0821__A
*1168 ANTENNA__0824__A1
*1169 ANTENNA__0825__A1
*1170 ANTENNA__0827__A
*1171 ANTENNA__0828__A
*1172 ANTENNA__0830__A
*1173 ANTENNA__0832__A
*1174 ANTENNA__0833__A
*1175 ANTENNA__0837__A1
*1176 ANTENNA__0837__B2
*1177 ANTENNA__0842__A1
*1178 ANTENNA__0842__B2
*1179 ANTENNA__0843__A
*1180 ANTENNA__0844__B2
*1181 ANTENNA__0845__A
*1182 ANTENNA__0849__B2
*1183 ANTENNA__0853__A
*1184 ANTENNA__0854__A1
*1185 ANTENNA__0858__A
*1186 ANTENNA__0861__A
*1187 ANTENNA__0863__A
*1188 ANTENNA__0865__A
*1189 ANTENNA__0869__A
*1190 ANTENNA__0873__A1
*1191 ANTENNA__0873__B2
*1192 ANTENNA__0875__A
*1193 ANTENNA__0878__A1
*1194 ANTENNA__0878__B2
*1195 ANTENNA__0881__A1
*1196 ANTENNA__0881__B2
*1197 ANTENNA__0882__A
*1198 ANTENNA__0884__B
*1199 ANTENNA__0885__A
*1200 ANTENNA__0888__A
*1201 ANTENNA__0889__A
*1202 ANTENNA__0890__A
*1203 ANTENNA__0892__A1
*1204 ANTENNA__0892__B2
*1205 ANTENNA__0893__A1
*1206 ANTENNA__0894__A
*1207 ANTENNA__0895__A
*1208 ANTENNA__0896__A
*1209 ANTENNA__0897__A1
*1210 ANTENNA__0897__B2
*1211 ANTENNA__0906__A1
*1212 ANTENNA__0907__A1
*1213 ANTENNA__0908__A
*1214 ANTENNA__0909__A1
*1215 ANTENNA__0910__A
*1216 ANTENNA__0918__A1
*1217 ANTENNA__0922__A
*1218 ANTENNA__0923__B
*1219 ANTENNA__0924__A
*1220 ANTENNA__0925__A
*1221 ANTENNA__0926__B1
*1222 ANTENNA__0927__A
*1223 ANTENNA__0928__A0
*1224 ANTENNA__0929__A
*1225 ANTENNA__0931__A0
*1226 ANTENNA__0932__A
*1227 ANTENNA__0934__A0
*1228 ANTENNA__0935__A
*1229 ANTENNA__0937__A0
*1230 ANTENNA__0938__A
*1231 ANTENNA__0940__A
*1232 ANTENNA__0941__A0
*1233 ANTENNA__0944__A0
*1234 ANTENNA__0947__A0
*1235 ANTENNA__0950__A0
*1236 ANTENNA__0953__A0
*1237 ANTENNA__0953__S
*1238 ANTENNA__0956__A0
*1239 ANTENNA__0956__S
*1240 ANTENNA__0959__A0
*1241 ANTENNA__0959__S
*1242 ANTENNA__0962__A0
*1243 ANTENNA__0962__S
*1244 ANTENNA__0965__A0
*1245 ANTENNA__0965__S
*1246 ANTENNA__0968__A0
*1247 ANTENNA__0968__S
*1248 ANTENNA__0971__A
*1249 ANTENNA__0972__A0
*1250 ANTENNA__0972__S
*1251 ANTENNA__0975__A0
*1252 ANTENNA__0975__S
*1253 ANTENNA__0978__A0
*1254 ANTENNA__0978__S
*1255 ANTENNA__0981__A0
*1256 ANTENNA__0981__S
*1257 ANTENNA__0984__A0
*1258 ANTENNA__0984__S
*1259 ANTENNA__0987__A0
*1260 ANTENNA__0987__S
*1261 ANTENNA__0990__A0
*1262 ANTENNA__0990__S
*1263 ANTENNA__0993__A0
*1264 ANTENNA__0993__S
*1265 ANTENNA__0996__A0
*1266 ANTENNA__0996__S
*1267 ANTENNA__0999__A0
*1268 ANTENNA__0999__S
*1269 ANTENNA__1002__A1
*1270 ANTENNA__1002__B2
*1271 ANTENNA__1004__B1
*1272 ANTENNA__1006__A1
*1273 ANTENNA__1006__B2
*1274 ANTENNA__1009__B2
*1275 ANTENNA__1010__A
*1276 ANTENNA__1014__A1
*1277 ANTENNA__1014__B2
*1278 ANTENNA__1015__A
*1279 ANTENNA__1016__A1
*1280 ANTENNA__1019__A1
*1281 ANTENNA__1019__B2
*1282 ANTENNA__1020__A
*1283 ANTENNA__1022__A_N
*1284 ANTENNA__1023__A_N
*1285 ANTENNA__1024__B_N
*1286 ANTENNA__1030__A1
*1287 ANTENNA__1030__B2
*1288 ANTENNA__1031__A
*1289 ANTENNA__1032__A1
*1290 ANTENNA__1033__A1
*1291 ANTENNA__1037__A1
*1292 ANTENNA__1037__B2
*1293 ANTENNA__1038__A
*1294 ANTENNA__1044__A
*1295 ANTENNA__1045__A
*1296 ANTENNA__1047__A
*1297 ANTENNA__1048__A
*1298 ANTENNA__1049__A1
*1299 ANTENNA__1049__B2
*1300 ANTENNA__1050__A1
*1301 ANTENNA__1053__A
*1302 ANTENNA__1054__A
*1303 ANTENNA__1055__A
*1304 ANTENNA__1056__A1
*1305 ANTENNA__1058__A1
*1306 ANTENNA__1058__B2
*1307 ANTENNA__1063__A1
*1308 ANTENNA__1070__B1
*1309 ANTENNA__1071__B2
*1310 ANTENNA__1073__A
*1311 ANTENNA__1079__A1
*1312 ANTENNA__1081__A1
*1313 ANTENNA__1082__A1
*1314 ANTENNA__1089__A1
*1315 ANTENNA__1090__A1
*1316 ANTENNA__1090__B2
*1317 ANTENNA__1092__A1
*1318 ANTENNA__1097__A
*1319 ANTENNA__1098__A
*1320 ANTENNA__1101__A2
*1321 ANTENNA__1101__B2
*1322 ANTENNA__1101__C1
*1323 ANTENNA__1102__A2
*1324 ANTENNA__1102__C1
*1325 ANTENNA__1104__A2
*1326 ANTENNA__1104__C1
*1327 ANTENNA__1106__A2
*1328 ANTENNA__1106__C1
*1329 ANTENNA__1108__A2
*1330 ANTENNA__1108__C1
*1331 ANTENNA__1110__A2
*1332 ANTENNA__1110__C1
*1333 ANTENNA__1112__A2
*1334 ANTENNA__1112__C1
*1335 ANTENNA__1114__A2
*1336 ANTENNA__1114__C1
*1337 ANTENNA__1118__A
*1338 ANTENNA__1119__A2
*1339 ANTENNA__1124__A1
*1340 ANTENNA__1124__B1
*1341 ANTENNA__1127__A
*1342 ANTENNA__1131__S
*1343 ANTENNA__1132__B1
*1344 ANTENNA__1135__B1
*1345 ANTENNA__1136__A
*1346 ANTENNA__1136__B
*1347 ANTENNA__1136__C
*1348 ANTENNA__1137__A
*1349 ANTENNA__1138__A2
*1350 ANTENNA__1138__B1
*1351 ANTENNA__1141__A1
*1352 ANTENNA__1141__B2
*1353 ANTENNA__1145__A1
*1354 ANTENNA__1146__A
*1355 ANTENNA__1147__A
*1356 ANTENNA__1148__A
*1357 ANTENNA__1150__A
*1358 ANTENNA__1151__A
*1359 ANTENNA__1152__A1
*1360 ANTENNA__1154__A1
*1361 ANTENNA__1155__A
*1362 ANTENNA__1156__A1
*1363 ANTENNA__1156__C1
*1364 ANTENNA__1157__A1
*1365 ANTENNA__1157__B2
*1366 ANTENNA__1158__A
*1367 ANTENNA__1159__A
*1368 ANTENNA__1161__A1
*1369 ANTENNA__1162__A1
*1370 ANTENNA__1163__A1
*1371 ANTENNA__1165__B_N
*1372 ANTENNA__1166__A_N
*1373 ANTENNA__1167__A_N
*1374 ANTENNA__1172__A1
*1375 ANTENNA__1173__B2
*1376 ANTENNA__1174__A_N
*1377 ANTENNA__1175__A1
*1378 ANTENNA__1178__B_N
*1379 ANTENNA__1180__A_N
*1380 ANTENNA__1183__A_N
*1381 ANTENNA__1184__A_N
*1382 ANTENNA__1185__A_N
*1383 ANTENNA__1187__B2
*1384 ANTENNA__1188__B1
*1385 ANTENNA__1190__A
*1386 ANTENNA__1198__A1
*1387 ANTENNA__1198__B2
*1388 ANTENNA__1202__A1
*1389 ANTENNA__1202__B2
*1390 ANTENNA__1208__A1
*1391 ANTENNA__1210__A1
*1392 ANTENNA__1212__A1
*1393 ANTENNA__1215__C1
*1394 ANTENNA__1221__B1
*1395 ANTENNA__1226__A
*1396 ANTENNA__1228__B
*1397 ANTENNA__1231__A
*1398 ANTENNA__1237__A
*1399 ANTENNA__1238__C
*1400 ANTENNA__1242__C
*1401 ANTENNA__1246__A
*1402 ANTENNA__1250__C
*1403 ANTENNA__1254__C
*1404 ANTENNA__1258__A
*1405 ANTENNA__1262__C
*1406 ANTENNA__1266__A
*1407 ANTENNA__1270__C1
*1408 ANTENNA__1273__C
*1409 ANTENNA__1277__C
*1410 ANTENNA__1281__C
*1411 ANTENNA__1285__A
*1412 ANTENNA__1289__C
*1413 ANTENNA__1293__A
*1414 ANTENNA__1297__C1
*1415 ANTENNA__1300__C
*1416 ANTENNA__1304__C
*1417 ANTENNA__1308__C
*1418 ANTENNA__1312__A
*1419 ANTENNA__1316__C
*1420 ANTENNA__1320__C
*1421 ANTENNA__1324__A
*1422 ANTENNA__1328__C
*1423 ANTENNA__1332__C
*1424 ANTENNA__1336__B
*1425 ANTENNA__1340__B
*1426 ANTENNA__1344__B
*1427 ANTENNA__1347__C1
*1428 ANTENNA__1348__B1
*1429 ANTENNA__1348__D1
*1430 ANTENNA__1350__A
*1431 ANTENNA__1351__A
*1432 ANTENNA__1353__S
*1433 ANTENNA__1354__A
*1434 ANTENNA__1356__S
*1435 ANTENNA__1357__A
*1436 ANTENNA__1359__S
*1437 ANTENNA__1360__A
*1438 ANTENNA__1362__S
*1439 ANTENNA__1363__A
*1440 ANTENNA__1365__S
*1441 ANTENNA__1366__A
*1442 ANTENNA__1368__S
*1443 ANTENNA__1369__A
*1444 ANTENNA__1371__S
*1445 ANTENNA__1372__A
*1446 ANTENNA__1374__A0
*1447 ANTENNA__1374__S
*1448 ANTENNA__1375__A
*1449 ANTENNA__1377__C
*1450 ANTENNA__1378__C1
*1451 ANTENNA__1379__C
*1452 ANTENNA__1380__C1
*1453 ANTENNA__1381__C
*1454 ANTENNA__1382__C1
*1455 ANTENNA__1383__C
*1456 ANTENNA__1384__C1
*1457 ANTENNA__1385__C
*1458 ANTENNA__1386__C1
*1459 ANTENNA__1387__C
*1460 ANTENNA__1388__C1
*1461 ANTENNA__1389__C
*1462 ANTENNA__1390__C1
*1463 ANTENNA__1391__C
*1464 ANTENNA__1392__C1
*1465 ANTENNA__1394__B1
*1466 ANTENNA__1394__C1
*1467 ANTENNA__1395__A
*1468 ANTENNA__1396__B
*1469 ANTENNA__1400__A
*1470 ANTENNA__1403__A
*1471 ANTENNA__1405__B
*1472 ANTENNA__1409__A
*1473 ANTENNA__1410__C
*1474 ANTENNA__1414__A
*1475 ANTENNA__1418__C
*1476 ANTENNA__1422__C
*1477 ANTENNA__1426__A
*1478 ANTENNA__1430__C
*1479 ANTENNA__1434__C
*1480 ANTENNA__1438__A
*1481 ANTENNA__1442__C
*1482 ANTENNA__1446__C
*1483 ANTENNA__1450__C
*1484 ANTENNA__1454__C
*1485 ANTENNA__1458__C
*1486 ANTENNA__1462__A
*1487 ANTENNA__1467__B
*1488 ANTENNA__1471__B
*1489 ANTENNA__1475__A_N
*1490 ANTENNA__1475__C
*1491 ANTENNA__1477__B
*1492 ANTENNA__1478__B
*1493 ANTENNA__1479__A
*1494 ANTENNA__1483__A
*1495 ANTENNA__1485__D
*1496 ANTENNA__1487__B
*1497 ANTENNA__1491__A
*1498 ANTENNA__1495__C
*1499 ANTENNA__1499__B
*1500 ANTENNA__1503__A
*1501 ANTENNA__1507__A_N
*1502 ANTENNA__1507__B
*1503 ANTENNA__1509__B
*1504 ANTENNA__1510__B
*1505 ANTENNA__1511__A
*1506 ANTENNA__1513__C
*1507 ANTENNA__1515__B
*1508 ANTENNA__1517__D
*1509 ANTENNA__1519__B
*1510 ANTENNA__1523__A
*1511 ANTENNA__1525__A1
*1512 ANTENNA__1525__B1
*1513 ANTENNA__1526__A1
*1514 ANTENNA__1527__A0
*1515 ANTENNA__1527__S
*1516 ANTENNA__1528__A
*1517 ANTENNA__1530__A0
*1518 ANTENNA__1530__S
*1519 ANTENNA__1531__A
*1520 ANTENNA__1533__A0
*1521 ANTENNA__1533__S
*1522 ANTENNA__1534__A
*1523 ANTENNA__1536__A0
*1524 ANTENNA__1536__S
*1525 ANTENNA__1537__A
*1526 ANTENNA__1539__A0
*1527 ANTENNA__1539__S
*1528 ANTENNA__1540__A
*1529 ANTENNA__1542__A0
*1530 ANTENNA__1542__S
*1531 ANTENNA__1543__A
*1532 ANTENNA__1545__A0
*1533 ANTENNA__1545__S
*1534 ANTENNA__1546__A
*1535 ANTENNA__1548__CLK
*1536 ANTENNA__1549__CLK
*1537 ANTENNA__1550__CLK
*1538 ANTENNA__1551__CLK
*1539 ANTENNA__1552__CLK
*1540 ANTENNA__1563__CLK
*1541 ANTENNA__1564__CLK
*1542 ANTENNA__1565__CLK
*1543 ANTENNA__1566__CLK
*1544 ANTENNA__1567__CLK
*1545 ANTENNA__1568__CLK
*1546 ANTENNA__1569__CLK
*1547 ANTENNA__1570__CLK
*1548 ANTENNA__1571__CLK
*1549 ANTENNA__1572__CLK
*1550 ANTENNA__1573__CLK
*1551 ANTENNA__1574__CLK
*1552 ANTENNA__1575__CLK
*1553 ANTENNA__1576__CLK
*1554 ANTENNA__1577__CLK
*1555 ANTENNA__1578__CLK
*1556 ANTENNA__1579__CLK
*1557 ANTENNA__1580__CLK
*1558 ANTENNA__1581__CLK
*1559 ANTENNA__1582__CLK
*1560 ANTENNA__1583__CLK
*1561 ANTENNA__1584__CLK
*1562 ANTENNA__1585__CLK
*1563 ANTENNA__1586__CLK
*1564 ANTENNA__1587__CLK
*1565 ANTENNA__1591__CLK
*1566 ANTENNA__1592__CLK
*1567 ANTENNA__1593__CLK
*1568 ANTENNA__1594__CLK
*1569 ANTENNA__1595__CLK
*1570 ANTENNA__1599__CLK
*1571 ANTENNA__1600__CLK
*1572 ANTENNA__1601__CLK
*1573 ANTENNA__1602__CLK
*1574 ANTENNA__1603__CLK
*1575 ANTENNA__1604__CLK
*1576 ANTENNA__1605__CLK
*1577 ANTENNA__1606__CLK
*1578 ANTENNA__1607__CLK
*1579 ANTENNA__1608__CLK
*1580 ANTENNA__1609__CLK
*1581 ANTENNA__1610__CLK
*1582 ANTENNA__1611__CLK
*1583 ANTENNA__1612__CLK
*1584 ANTENNA__1613__CLK
*1585 ANTENNA__1614__CLK
*1586 ANTENNA__1615__CLK
*1587 ANTENNA__1616__CLK
*1588 ANTENNA__1617__CLK
*1589 ANTENNA__1622__CLK
*1590 ANTENNA__1623__CLK
*1591 ANTENNA__1624__CLK
*1592 ANTENNA__1625__CLK
*1593 ANTENNA__1626__CLK
*1594 ANTENNA__1627__CLK
*1595 ANTENNA__1628__CLK
*1596 ANTENNA__1629__CLK
*1597 ANTENNA__1630__CLK
*1598 ANTENNA__1631__CLK
*1599 ANTENNA__1632__CLK
*1600 ANTENNA__1633__CLK
*1601 ANTENNA__1634__CLK
*1602 ANTENNA__1635__CLK
*1603 ANTENNA__1636__CLK
*1604 ANTENNA__1637__CLK
*1605 ANTENNA__1638__CLK
*1606 ANTENNA__1643__CLK
*1607 ANTENNA__1644__CLK
*1608 ANTENNA__1645__CLK
*1609 ANTENNA__1646__CLK
*1610 ANTENNA__1647__CLK
*1611 ANTENNA__1650__CLK
*1612 ANTENNA__1651__CLK
*1613 ANTENNA__1652__CLK
*1614 ANTENNA__1653__CLK
*1615 ANTENNA__1654__CLK
*1616 ANTENNA__1655__CLK
*1617 ANTENNA__1656__CLK
*1618 ANTENNA__1657__CLK
*1619 ANTENNA__1658__CLK
*1620 ANTENNA__1660__CLK
*1621 ANTENNA__1661__CLK
*1622 ANTENNA__1662__CLK
*1623 ANTENNA__1663__CLK
*1624 ANTENNA__1664__CLK
*1625 ANTENNA__1665__CLK
*1626 ANTENNA__1666__CLK
*1627 ANTENNA__1667__CLK
*1628 ANTENNA__1668__CLK
*1629 ANTENNA__1669__CLK
*1630 ANTENNA__1670__CLK
*1631 ANTENNA__1671__CLK
*1632 ANTENNA__1672__CLK
*1633 ANTENNA__1673__CLK
*1634 ANTENNA__1674__CLK
*1635 ANTENNA__1675__CLK
*1636 ANTENNA__1676__CLK
*1637 ANTENNA__1677__CLK
*1638 ANTENNA__1678__CLK
*1639 ANTENNA__1679__A
*1640 ANTENNA__1680__A
*1641 ANTENNA__1681__A
*1642 ANTENNA__1682__A
*1643 ANTENNA__1683__A
*1644 ANTENNA__1684__A
*1645 ANTENNA__1685__A
*1646 ANTENNA__1686__A
*1647 ANTENNA__1687__A
*1648 ANTENNA__1688__A
*1649 ANTENNA__1689__A
*1650 ANTENNA__1690__A
*1651 ANTENNA__1691__A
*1652 ANTENNA__1692__A
*1653 ANTENNA__1693__A
*1654 ANTENNA__1694__A
*1655 ANTENNA__1695__A
*1656 ANTENNA__1696__A
*1657 ANTENNA__1697__A
*1658 ANTENNA__1698__A
*1659 ANTENNA__1699__A
*1660 ANTENNA__1700__A
*1661 ANTENNA__1701__A
*1662 ANTENNA_clkbuf_4_0_0_clk_A
*1663 ANTENNA_clkbuf_4_10_0_clk_A
*1664 ANTENNA_clkbuf_4_11_0_clk_A
*1665 ANTENNA_clkbuf_4_12_0_clk_A
*1666 ANTENNA_clkbuf_4_13_0_clk_A
*1667 ANTENNA_clkbuf_4_14_0_clk_A
*1668 ANTENNA_clkbuf_4_15_0_clk_A
*1669 ANTENNA_clkbuf_4_1_0_clk_A
*1670 ANTENNA_clkbuf_4_2_0_clk_A
*1671 ANTENNA_clkbuf_4_3_0_clk_A
*1672 ANTENNA_clkbuf_4_4_0_clk_A
*1673 ANTENNA_clkbuf_4_5_0_clk_A
*1674 ANTENNA_clkbuf_4_6_0_clk_A
*1675 ANTENNA_clkbuf_4_7_0_clk_A
*1676 ANTENNA_clkbuf_4_8_0_clk_A
*1677 ANTENNA_clkbuf_4_9_0_clk_A
*1678 ANTENNA_output100_A
*1679 ANTENNA_output101_A
*1680 ANTENNA_output102_A
*1681 ANTENNA_output103_A
*1682 ANTENNA_output104_A
*1683 ANTENNA_output105_A
*1684 ANTENNA_output106_A
*1685 ANTENNA_output107_A
*1686 ANTENNA_output108_A
*1687 ANTENNA_output109_A
*1688 ANTENNA_output110_A
*1689 ANTENNA_output111_A
*1690 ANTENNA_output112_A
*1691 ANTENNA_output113_A
*1692 ANTENNA_output114_A
*1693 ANTENNA_output73_A
*1694 ANTENNA_output82_A
*1695 ANTENNA_output83_A
*1696 ANTENNA_output84_A
*1697 ANTENNA_output85_A
*1698 ANTENNA_output86_A
*1699 ANTENNA_output87_A
*1700 ANTENNA_output88_A
*1701 ANTENNA_output89_A
*1702 ANTENNA_output90_A
*1703 ANTENNA_output91_A
*1704 ANTENNA_output92_A
*1705 ANTENNA_output93_A
*1706 ANTENNA_output94_A
*1707 ANTENNA_output95_A
*1708 ANTENNA_output96_A
*1709 ANTENNA_output97_A
*1710 ANTENNA_output98_A
*1711 ANTENNA_output99_A
*1712 FILLER_0_0_109
*1713 FILLER_0_0_113
*1714 FILLER_0_0_125
*1715 FILLER_0_0_137
*1716 FILLER_0_0_141