* NGSPICE file created from simpleuart.ext - technology: sky130A

* Black-box entry subcircuit for sky130_fd_sc_hd__decap_6 abstract view
.subckt sky130_fd_sc_hd__decap_6 VGND VNB VPB VPWR
.ends

* Black-box entry subcircuit for sky130_fd_sc_hd__tapvpwrvgnd_1 abstract view
.subckt sky130_fd_sc_hd__tapvpwrvgnd_1 VGND VPWR
.ends

* Black-box entry subcircuit for sky130_ef_sc_hd__decap_12 abstract view
.subckt sky130_ef_sc_hd__decap_12 VGND VPWR VPB VNB
.ends

* Black-box entry subcircuit for sky130_fd_sc_hd__fill_1 abstract view
.subckt sky130_fd_sc_hd__fill_1 VGND VNB VPB VPWR
.ends

* Black-box entry subcircuit for sky130_fd_sc_hd__fill_2 abstract view
.subckt sky130_fd_sc_hd__fill_2 VGND VNB VPB VPWR
.ends

* Black-box entry subcircuit for sky130_fd_sc_hd__diode_2 abstract view
.subckt sky130_fd_sc_hd__diode_2 DIODE VGND VNB VPB VPWR
.ends

* Black-box entry subcircuit for sky130_fd_sc_hd__decap_4 abstract view
.subckt sky130_fd_sc_hd__decap_4 VGND VNB VPB VPWR
.ends

* Black-box entry subcircuit for sky130_fd_sc_hd__a211oi_1 abstract view
.subckt sky130_fd_sc_hd__a211oi_1 A1 A2 B1 C1 VGND VNB VPB VPWR Y
.ends

* Black-box entry subcircuit for sky130_fd_sc_hd__and2_1 abstract view
.subckt sky130_fd_sc_hd__and2_1 A B VGND VNB VPB VPWR X
.ends

* Black-box entry subcircuit for sky130_fd_sc_hd__decap_8 abstract view
.subckt sky130_fd_sc_hd__decap_8 VGND VNB VPB VPWR
.ends

* Black-box entry subcircuit for sky130_fd_sc_hd__dfxtp_1 abstract view
.subckt sky130_fd_sc_hd__dfxtp_1 CLK D VGND VNB VPB VPWR Q
.ends

* Black-box entry subcircuit for sky130_fd_sc_hd__clkbuf_1 abstract view
.subckt sky130_fd_sc_hd__clkbuf_1 A VGND VNB VPB VPWR X
.ends

* Black-box entry subcircuit for sky130_fd_sc_hd__nand2_1 abstract view
.subckt sky130_fd_sc_hd__nand2_1 A B VGND VNB VPB VPWR Y
.ends

* Black-box entry subcircuit for sky130_fd_sc_hd__or3_1 abstract view
.subckt sky130_fd_sc_hd__or3_1 A B C VGND VNB VPB VPWR X
.ends

* Black-box entry subcircuit for sky130_fd_sc_hd__or2_1 abstract view
.subckt sky130_fd_sc_hd__or2_1 A B VGND VNB VPB VPWR X
.ends

* Black-box entry subcircuit for sky130_fd_sc_hd__and2b_1 abstract view
.subckt sky130_fd_sc_hd__and2b_1 A_N B VGND VNB VPB VPWR X
.ends

* Black-box entry subcircuit for sky130_fd_sc_hd__clkbuf_8 abstract view
.subckt sky130_fd_sc_hd__clkbuf_8 A VGND VNB VPB VPWR X
.ends

* Black-box entry subcircuit for sky130_fd_sc_hd__mux2_1 abstract view
.subckt sky130_fd_sc_hd__mux2_1 A0 A1 S VGND VNB VPB VPWR X
.ends

* Black-box entry subcircuit for sky130_fd_sc_hd__decap_3 abstract view
.subckt sky130_fd_sc_hd__decap_3 VGND VNB VPB VPWR
.ends

* Black-box entry subcircuit for sky130_fd_sc_hd__inv_2 abstract view
.subckt sky130_fd_sc_hd__inv_2 A VGND VNB VPB VPWR Y
.ends

* Black-box entry subcircuit for sky130_fd_sc_hd__clkbuf_4 abstract view
.subckt sky130_fd_sc_hd__clkbuf_4 A VGND VNB VPB VPWR X
.ends

* Black-box entry subcircuit for sky130_fd_sc_hd__dfxtp_2 abstract view
.subckt sky130_fd_sc_hd__dfxtp_2 CLK D VGND VNB VPB VPWR Q
.ends

* Black-box entry subcircuit for sky130_fd_sc_hd__a2bb2o_1 abstract view
.subckt sky130_fd_sc_hd__a2bb2o_1 A1_N A2_N B1 B2 VGND VNB VPB VPWR X
.ends

* Black-box entry subcircuit for sky130_fd_sc_hd__and3b_1 abstract view
.subckt sky130_fd_sc_hd__and3b_1 A_N B C VGND VNB VPB VPWR X
.ends

* Black-box entry subcircuit for sky130_fd_sc_hd__and4_1 abstract view
.subckt sky130_fd_sc_hd__and4_1 A B C D VGND VNB VPB VPWR X
.ends

* Black-box entry subcircuit for sky130_fd_sc_hd__clkinv_2 abstract view
.subckt sky130_fd_sc_hd__clkinv_2 A VGND VNB VPB VPWR Y
.ends

* Black-box entry subcircuit for sky130_fd_sc_hd__and3_1 abstract view
.subckt sky130_fd_sc_hd__and3_1 A B C VGND VNB VPB VPWR X
.ends

* Black-box entry subcircuit for sky130_fd_sc_hd__a221o_1 abstract view
.subckt sky130_fd_sc_hd__a221o_1 A1 A2 B1 B2 C1 VGND VNB VPB VPWR X
.ends

* Black-box entry subcircuit for sky130_fd_sc_hd__nor2_1 abstract view
.subckt sky130_fd_sc_hd__nor2_1 A B VGND VNB VPB VPWR Y
.ends

* Black-box entry subcircuit for sky130_fd_sc_hd__or2b_1 abstract view
.subckt sky130_fd_sc_hd__or2b_1 A B_N VGND VNB VPB VPWR X
.ends

* Black-box entry subcircuit for sky130_fd_sc_hd__nor2_4 abstract view
.subckt sky130_fd_sc_hd__nor2_4 A B VGND VNB VPB VPWR Y
.ends

* Black-box entry subcircuit for sky130_fd_sc_hd__a31o_1 abstract view
.subckt sky130_fd_sc_hd__a31o_1 A1 A2 A3 B1 VGND VNB VPB VPWR X
.ends

* Black-box entry subcircuit for sky130_fd_sc_hd__xnor2_1 abstract view
.subckt sky130_fd_sc_hd__xnor2_1 A B VGND VNB VPB VPWR Y
.ends

* Black-box entry subcircuit for sky130_fd_sc_hd__o21ai_1 abstract view
.subckt sky130_fd_sc_hd__o21ai_1 A1 A2 B1 VGND VNB VPB VPWR Y
.ends

* Black-box entry subcircuit for sky130_fd_sc_hd__o22a_1 abstract view
.subckt sky130_fd_sc_hd__o22a_1 A1 A2 B1 B2 VGND VNB VPB VPWR X
.ends

* Black-box entry subcircuit for sky130_fd_sc_hd__a221oi_1 abstract view
.subckt sky130_fd_sc_hd__a221oi_1 A1 A2 B1 B2 C1 VGND VNB VPB VPWR Y
.ends

* Black-box entry subcircuit for sky130_fd_sc_hd__o31a_1 abstract view
.subckt sky130_fd_sc_hd__o31a_1 A1 A2 A3 B1 VGND VNB VPB VPWR X
.ends

* Black-box entry subcircuit for sky130_fd_sc_hd__dfxtp_4 abstract view
.subckt sky130_fd_sc_hd__dfxtp_4 CLK D VGND VNB VPB VPWR Q
.ends

* Black-box entry subcircuit for sky130_fd_sc_hd__buf_4 abstract view
.subckt sky130_fd_sc_hd__buf_4 A VGND VNB VPB VPWR X
.ends

* Black-box entry subcircuit for sky130_fd_sc_hd__o211a_1 abstract view
.subckt sky130_fd_sc_hd__o211a_1 A1 A2 B1 C1 VGND VNB VPB VPWR X
.ends

* Black-box entry subcircuit for sky130_fd_sc_hd__o2111a_1 abstract view
.subckt sky130_fd_sc_hd__o2111a_1 A1 A2 B1 C1 D1 VGND VNB VPB VPWR X
.ends

* Black-box entry subcircuit for sky130_fd_sc_hd__o211a_2 abstract view
.subckt sky130_fd_sc_hd__o211a_2 A1 A2 B1 C1 VGND VNB VPB VPWR X
.ends

* Black-box entry subcircuit for sky130_fd_sc_hd__a21oi_1 abstract view
.subckt sky130_fd_sc_hd__a21oi_1 A1 A2 B1 VGND VNB VPB VPWR Y
.ends

* Black-box entry subcircuit for sky130_fd_sc_hd__a2111o_1 abstract view
.subckt sky130_fd_sc_hd__a2111o_1 A1 A2 B1 C1 D1 VGND VNB VPB VPWR X
.ends

* Black-box entry subcircuit for sky130_fd_sc_hd__a211o_1 abstract view
.subckt sky130_fd_sc_hd__a211o_1 A1 A2 B1 C1 VGND VNB VPB VPWR X
.ends

* Black-box entry subcircuit for sky130_fd_sc_hd__a221oi_4 abstract view
.subckt sky130_fd_sc_hd__a221oi_4 A1 A2 B1 B2 C1 VGND VNB VPB VPWR Y
.ends

* Black-box entry subcircuit for sky130_fd_sc_hd__a21boi_1 abstract view
.subckt sky130_fd_sc_hd__a21boi_1 A1 A2 B1_N VGND VNB VPB VPWR Y
.ends

* Black-box entry subcircuit for sky130_fd_sc_hd__o221a_1 abstract view
.subckt sky130_fd_sc_hd__o221a_1 A1 A2 B1 B2 C1 VGND VNB VPB VPWR X
.ends

* Black-box entry subcircuit for sky130_fd_sc_hd__a22o_1 abstract view
.subckt sky130_fd_sc_hd__a22o_1 A1 A2 B1 B2 VGND VNB VPB VPWR X
.ends

* Black-box entry subcircuit for sky130_fd_sc_hd__nor2_2 abstract view
.subckt sky130_fd_sc_hd__nor2_2 A B VGND VNB VPB VPWR Y
.ends

* Black-box entry subcircuit for sky130_fd_sc_hd__nand3_1 abstract view
.subckt sky130_fd_sc_hd__nand3_1 A B C VGND VNB VPB VPWR Y
.ends

* Black-box entry subcircuit for sky130_fd_sc_hd__clkbuf_16 abstract view
.subckt sky130_fd_sc_hd__clkbuf_16 A VGND VNB VPB VPWR X
.ends

* Black-box entry subcircuit for sky130_fd_sc_hd__a21o_1 abstract view
.subckt sky130_fd_sc_hd__a21o_1 A1 A2 B1 VGND VNB VPB VPWR X
.ends

* Black-box entry subcircuit for sky130_fd_sc_hd__or4b_1 abstract view
.subckt sky130_fd_sc_hd__or4b_1 A B C D_N VGND VNB VPB VPWR X
.ends

* Black-box entry subcircuit for sky130_fd_sc_hd__o21a_1 abstract view
.subckt sky130_fd_sc_hd__o21a_1 A1 A2 B1 VGND VNB VPB VPWR X
.ends

* Black-box entry subcircuit for sky130_fd_sc_hd__a22oi_2 abstract view
.subckt sky130_fd_sc_hd__a22oi_2 A1 A2 B1 B2 VGND VNB VPB VPWR Y
.ends

* Black-box entry subcircuit for sky130_fd_sc_hd__a32o_1 abstract view
.subckt sky130_fd_sc_hd__a32o_1 A1 A2 A3 B1 B2 VGND VNB VPB VPWR X
.ends

* Black-box entry subcircuit for sky130_fd_sc_hd__o21ba_1 abstract view
.subckt sky130_fd_sc_hd__o21ba_1 A1 A2 B1_N VGND VNB VPB VPWR X
.ends

* Black-box entry subcircuit for sky130_fd_sc_hd__and4_2 abstract view
.subckt sky130_fd_sc_hd__and4_2 A B C D VGND VNB VPB VPWR X
.ends

* Black-box entry subcircuit for sky130_fd_sc_hd__or3b_1 abstract view
.subckt sky130_fd_sc_hd__or3b_1 A B C_N VGND VNB VPB VPWR X
.ends

* Black-box entry subcircuit for sky130_fd_sc_hd__or3_2 abstract view
.subckt sky130_fd_sc_hd__or3_2 A B C VGND VNB VPB VPWR X
.ends

* Black-box entry subcircuit for sky130_fd_sc_hd__clkbuf_2 abstract view
.subckt sky130_fd_sc_hd__clkbuf_2 A VGND VNB VPB VPWR X
.ends

* Black-box entry subcircuit for sky130_fd_sc_hd__o2bb2a_1 abstract view
.subckt sky130_fd_sc_hd__o2bb2a_1 A1_N A2_N B1 B2 VGND VNB VPB VPWR X
.ends

* Black-box entry subcircuit for sky130_fd_sc_hd__nand4b_1 abstract view
.subckt sky130_fd_sc_hd__nand4b_1 A_N B C D VGND VNB VPB VPWR Y
.ends

* Black-box entry subcircuit for sky130_fd_sc_hd__o311a_1 abstract view
.subckt sky130_fd_sc_hd__o311a_1 A1 A2 A3 B1 C1 VGND VNB VPB VPWR X
.ends

* Black-box entry subcircuit for sky130_fd_sc_hd__nor3_1 abstract view
.subckt sky130_fd_sc_hd__nor3_1 A B C VGND VNB VPB VPWR Y
.ends

* Black-box entry subcircuit for sky130_fd_sc_hd__or4_1 abstract view
.subckt sky130_fd_sc_hd__or4_1 A B C D VGND VNB VPB VPWR X
.ends

* Black-box entry subcircuit for sky130_fd_sc_hd__xor2_1 abstract view
.subckt sky130_fd_sc_hd__xor2_1 A B VGND VNB VPB VPWR X
.ends

* Black-box entry subcircuit for sky130_fd_sc_hd__a22oi_1 abstract view
.subckt sky130_fd_sc_hd__a22oi_1 A1 A2 B1 B2 VGND VNB VPB VPWR Y
.ends

* Black-box entry subcircuit for sky130_fd_sc_hd__o2111ai_1 abstract view
.subckt sky130_fd_sc_hd__o2111ai_1 A1 A2 B1 C1 D1 VGND VNB VPB VPWR Y
.ends

* Black-box entry subcircuit for sky130_fd_sc_hd__a32o_2 abstract view
.subckt sky130_fd_sc_hd__a32o_2 A1 A2 A3 B1 B2 VGND VNB VPB VPWR X
.ends

* Black-box entry subcircuit for sky130_fd_sc_hd__or2_4 abstract view
.subckt sky130_fd_sc_hd__or2_4 A B VGND VNB VPB VPWR X
.ends

* Black-box entry subcircuit for sky130_fd_sc_hd__a2111oi_1 abstract view
.subckt sky130_fd_sc_hd__a2111oi_1 A1 A2 B1 C1 D1 VGND VNB VPB VPWR Y
.ends

* Black-box entry subcircuit for sky130_fd_sc_hd__a21bo_1 abstract view
.subckt sky130_fd_sc_hd__a21bo_1 A1 A2 B1_N VGND VNB VPB VPWR X
.ends

* Black-box entry subcircuit for sky130_fd_sc_hd__or3b_2 abstract view
.subckt sky130_fd_sc_hd__or3b_2 A B C_N VGND VNB VPB VPWR X
.ends

* Black-box entry subcircuit for sky130_fd_sc_hd__clkinv_8 abstract view
.subckt sky130_fd_sc_hd__clkinv_8 A VGND VNB VPB VPWR Y
.ends

* Black-box entry subcircuit for sky130_fd_sc_hd__a311o_1 abstract view
.subckt sky130_fd_sc_hd__a311o_1 A1 A2 A3 B1 C1 VGND VNB VPB VPWR X
.ends

.subckt simpleuart VGND VPWR clk reg_dat_di[0] reg_dat_di[10] reg_dat_di[11] reg_dat_di[12]
+ reg_dat_di[13] reg_dat_di[14] reg_dat_di[15] reg_dat_di[16] reg_dat_di[17] reg_dat_di[18]
+ reg_dat_di[19] reg_dat_di[1] reg_dat_di[20] reg_dat_di[21] reg_dat_di[22] reg_dat_di[23]
+ reg_dat_di[24] reg_dat_di[25] reg_dat_di[26] reg_dat_di[27] reg_dat_di[28] reg_dat_di[29]
+ reg_dat_di[2] reg_dat_di[30] reg_dat_di[31] reg_dat_di[3] reg_dat_di[4] reg_dat_di[5]
+ reg_dat_di[6] reg_dat_di[7] reg_dat_di[8] reg_dat_di[9] reg_dat_do[0] reg_dat_do[10]
+ reg_dat_do[11] reg_dat_do[12] reg_dat_do[13] reg_dat_do[14] reg_dat_do[15] reg_dat_do[16]
+ reg_dat_do[17] reg_dat_do[18] reg_dat_do[19] reg_dat_do[1] reg_dat_do[20] reg_dat_do[21]
+ reg_dat_do[22] reg_dat_do[23] reg_dat_do[24] reg_dat_do[25] reg_dat_do[26] reg_dat_do[27]
+ reg_dat_do[28] reg_dat_do[29] reg_dat_do[2] reg_dat_do[30] reg_dat_do[31] reg_dat_do[3]
+ reg_dat_do[4] reg_dat_do[5] reg_dat_do[6] reg_dat_do[7] reg_dat_do[8] reg_dat_do[9]
+ reg_dat_re reg_dat_wait reg_dat_we reg_div_di[0] reg_div_di[10] reg_div_di[11] reg_div_di[12]
+ reg_div_di[13] reg_div_di[14] reg_div_di[15] reg_div_di[16] reg_div_di[17] reg_div_di[18]
+ reg_div_di[19] reg_div_di[1] reg_div_di[20] reg_div_di[21] reg_div_di[22] reg_div_di[23]
+ reg_div_di[24] reg_div_di[25] reg_div_di[26] reg_div_di[27] reg_div_di[28] reg_div_di[29]
+ reg_div_di[2] reg_div_di[30] reg_div_di[31] reg_div_di[3] reg_div_di[4] reg_div_di[5]
+ reg_div_di[6] reg_div_di[7] reg_div_di[8] reg_div_di[9] reg_div_do[0] reg_div_do[10]
+ reg_div_do[11] reg_div_do[12] reg_div_do[13] reg_div_do[14] reg_div_do[15] reg_div_do[16]
+ reg_div_do[17] reg_div_do[18] reg_div_do[19] reg_div_do[1] reg_div_do[20] reg_div_do[21]
+ reg_div_do[22] reg_div_do[23] reg_div_do[24] reg_div_do[25] reg_div_do[26] reg_div_do[27]
+ reg_div_do[28] reg_div_do[29] reg_div_do[2] reg_div_do[30] reg_div_do[31] reg_div_do[3]
+ reg_div_do[4] reg_div_do[5] reg_div_do[6] reg_div_do[7] reg_div_do[8] reg_div_do[9]
+ reg_div_we[0] reg_div_we[1] reg_div_we[2] reg_div_we[3] resetn ser_rx ser_tx
XFILLER_0_94_77 VGND VGND VPWR VPWR sky130_fd_sc_hd__decap_6
XTAP_TAPCELL_ROW_124_2311 VGND VPWR sky130_fd_sc_hd__tapvpwrvgnd_1
XFILLER_0_27_93 VGND VPWR VPWR VGND sky130_ef_sc_hd__decap_12
XTAP_TAPCELL_ROW_38_935 VGND VPWR sky130_fd_sc_hd__tapvpwrvgnd_1
XFILLER_0_89_461 VGND VPWR VPWR VGND sky130_ef_sc_hd__decap_12
XFILLER_0_76_133 VGND VGND VPWR VPWR sky130_fd_sc_hd__decap_6
XFILLER_0_134_83 VGND VGND VPWR VPWR sky130_fd_sc_hd__fill_1
XFILLER_0_76_177 VGND VPWR VPWR VGND sky130_ef_sc_hd__decap_12
XFILLER_0_18_701 VGND VPWR VPWR VGND sky130_ef_sc_hd__decap_12
XFILLER_0_43_81 VGND VPWR VPWR VGND sky130_ef_sc_hd__decap_12
XTAP_TAPCELL_ROW_102_1963 VGND VPWR sky130_fd_sc_hd__tapvpwrvgnd_1
XFILLER_0_92_637 VGND VGND VPWR VPWR sky130_fd_sc_hd__fill_2
XFILLER_0_91_125 VGND VPWR VPWR VGND sky130_ef_sc_hd__decap_12
XFILLER_0_57_391 VGND VGND VPWR VPWR sky130_fd_sc_hd__fill_1
XFILLER_0_119_279 VGND VGND VPWR VPWR sky130_fd_sc_hd__fill_1
XFILLER_0_91_169 VGND VPWR VPWR VGND sky130_ef_sc_hd__decap_12
XFILLER_0_115_441 VGND VGND VPWR VPWR sky130_fd_sc_hd__decap_6
XFILLER_0_60_512 VGND VPWR VPWR VGND sky130_ef_sc_hd__decap_12
XFILLER_0_33_737 VGND VGND VPWR VPWR sky130_fd_sc_hd__fill_1
XFILLER_0_45_597 VGND VPWR VPWR VGND sky130_ef_sc_hd__decap_12
XFILLER_0_143_783 VGND VGND VPWR VPWR sky130_fd_sc_hd__fill_1
XTAP_TAPCELL_ROW_135_2484 VGND VPWR sky130_fd_sc_hd__tapvpwrvgnd_1
XFILLER_0_115_485 VGND VPWR VPWR VGND sky130_ef_sc_hd__decap_12
XFILLER_0_60_545 VGND VPWR VPWR VGND sky130_ef_sc_hd__decap_12
XANTENNA__0965__A0 net94 VGND VGND VPWR VPWR sky130_fd_sc_hd__diode_2
XFILLER_0_5_683 VGND VGND VPWR VPWR sky130_fd_sc_hd__decap_4
XTAP_TAPCELL_ROW_135_2495 VGND VPWR sky130_fd_sc_hd__tapvpwrvgnd_1
XFILLER_0_130_433 VGND VPWR VPWR VGND sky130_ef_sc_hd__decap_12
XFILLER_0_60_589 VGND VGND VPWR VPWR sky130_fd_sc_hd__decap_4
XFILLER_0_13_461 VGND VPWR VPWR VGND sky130_ef_sc_hd__decap_12
XFILLER_0_130_477 VGND VPWR VPWR VGND sky130_ef_sc_hd__decap_12
XFILLER_0_7_81 VGND VPWR VPWR VGND sky130_ef_sc_hd__decap_12
XANTENNA__1534__A _0349_ VGND VGND VPWR VPWR sky130_fd_sc_hd__diode_2
XFILLER_0_99_225 VGND VPWR VPWR VGND sky130_ef_sc_hd__decap_12
XFILLER_0_68_601 VGND VPWR VPWR VGND sky130_ef_sc_hd__decap_12
XFILLER_0_68_656 VGND VGND VPWR VPWR sky130_fd_sc_hd__fill_2
XFILLER_0_67_111 VGND VGND VPWR VPWR sky130_fd_sc_hd__fill_1
XFILLER_0_138_533 VGND VPWR VPWR VGND sky130_ef_sc_hd__decap_12
XFILLER_0_83_615 VGND VGND VPWR VPWR sky130_fd_sc_hd__fill_1
XFILLER_0_55_317 VGND VPWR VPWR VGND sky130_ef_sc_hd__decap_12
XFILLER_0_95_497 VGND VGND VPWR VPWR sky130_fd_sc_hd__decap_6
XFILLER_0_36_520 VGND VPWR VPWR VGND sky130_ef_sc_hd__decap_12
XFILLER_0_125_205 VGND VPWR VPWR VGND sky130_ef_sc_hd__decap_12
XFILLER_0_70_309 VGND VPWR VPWR VGND sky130_ef_sc_hd__decap_12
XFILLER_0_36_553 VGND VGND VPWR VPWR sky130_fd_sc_hd__fill_2
XFILLER_0_141_709 VGND VPWR VPWR VGND sky130_ef_sc_hd__decap_12
XFILLER_0_125_249 VGND VPWR VPWR VGND sky130_ef_sc_hd__decap_12
XFILLER_0_63_361 VGND VPWR VPWR VGND sky130_ef_sc_hd__decap_12
XFILLER_0_24_737 VGND VGND VPWR VPWR sky130_fd_sc_hd__fill_2
XFILLER_0_51_545 VGND VPWR VPWR VGND sky130_ef_sc_hd__decap_12
XFILLER_0_23_225 VGND VPWR VPWR VGND sky130_ef_sc_hd__decap_12
XANTENNA__0956__A0 net90 VGND VGND VPWR VPWR sky130_fd_sc_hd__diode_2
XFILLER_0_133_293 VGND VPWR VPWR VGND sky130_ef_sc_hd__decap_12
XFILLER_0_32_770 VGND VPWR VPWR VGND sky130_ef_sc_hd__decap_12
XTAP_TAPCELL_ROW_75_1531 VGND VPWR sky130_fd_sc_hd__tapvpwrvgnd_1
XFILLER_0_48_15 VGND VPWR VPWR VGND sky130_ef_sc_hd__decap_12
XFILLER_0_139_39 VGND VPWR VPWR VGND sky130_ef_sc_hd__decap_12
X_1270_ _0408_ _0637_ _0641_ _0509_ VGND VGND VPWR VPWR _0053_ sky130_fd_sc_hd__a211oi_1
XFILLER_0_3_39 VGND VPWR VPWR VGND sky130_ef_sc_hd__decap_12
XTAP_TAPCELL_ROW_106_2030 VGND VPWR sky130_fd_sc_hd__tapvpwrvgnd_1
XFILLER_0_149_809 VGND VPWR VPWR VGND sky130_ef_sc_hd__decap_12
XFILLER_0_147_3 VGND VPWR VPWR VGND sky130_ef_sc_hd__decap_12
XFILLER_0_58_133 VGND VGND VPWR VPWR sky130_fd_sc_hd__decap_6
XFILLER_0_86_475 VGND VGND VPWR VPWR sky130_fd_sc_hd__fill_1
XFILLER_0_104_53 VGND VPWR VPWR VGND sky130_ef_sc_hd__decap_12
XFILLER_0_73_125 VGND VPWR VPWR VGND sky130_ef_sc_hd__decap_12
XFILLER_0_58_177 VGND VPWR VPWR VGND sky130_ef_sc_hd__decap_12
XFILLER_0_13_51 VGND VGND VPWR VPWR sky130_fd_sc_hd__decap_4
XFILLER_0_144_525 VGND VGND VPWR VPWR sky130_fd_sc_hd__decap_6
XFILLER_0_104_97 VGND VPWR VPWR VGND sky130_ef_sc_hd__decap_12
XFILLER_0_73_169 VGND VPWR VPWR VGND sky130_ef_sc_hd__decap_12
XFILLER_0_39_391 VGND VGND VPWR VPWR sky130_fd_sc_hd__fill_1
XFILLER_0_144_569 VGND VPWR VPWR VGND sky130_ef_sc_hd__decap_12
X_0985_ _0381_ _0390_ VGND VGND VPWR VPWR _0391_ sky130_fd_sc_hd__and2_1
XFILLER_0_6_469 VGND VGND VPWR VPWR sky130_fd_sc_hd__decap_6
XFILLER_0_27_597 VGND VPWR VPWR VGND sky130_ef_sc_hd__decap_12
XFILLER_0_42_501 VGND VPWR VPWR VGND sky130_ef_sc_hd__decap_12
XFILLER_0_125_783 VGND VGND VPWR VPWR sky130_fd_sc_hd__fill_1
XFILLER_0_120_41 VGND VPWR VPWR VGND sky130_ef_sc_hd__decap_12
XFILLER_0_89_55 VGND VGND VPWR VPWR sky130_fd_sc_hd__fill_1
XANTENNA__0947__A0 net87 VGND VGND VPWR VPWR sky130_fd_sc_hd__diode_2
XFILLER_0_42_545 VGND VGND VPWR VPWR sky130_fd_sc_hd__decap_8
XFILLER_0_112_433 VGND VPWR VPWR VGND sky130_ef_sc_hd__decap_12
XFILLER_0_42_589 VGND VPWR VPWR VGND sky130_ef_sc_hd__decap_12
XFILLER_0_120_85 VGND VPWR VPWR VGND sky130_ef_sc_hd__decap_12
XFILLER_0_112_477 VGND VPWR VPWR VGND sky130_ef_sc_hd__decap_12
X_1606_ clknet_4_2_0_clk _0058_ VGND VGND VPWR VPWR send_divcnt\[15\] sky130_fd_sc_hd__dfxtp_1
XANTENNA__1354__A _0700_ VGND VGND VPWR VPWR sky130_fd_sc_hd__diode_2
XFILLER_0_10_475 VGND VGND VPWR VPWR sky130_fd_sc_hd__fill_1
X_1537_ _0349_ _0196_ VGND VGND VPWR VPWR _0197_ sky130_fd_sc_hd__and2_1
X_1468_ _0146_ VGND VGND VPWR VPWR _0108_ sky130_fd_sc_hd__clkbuf_1
XANTENNA__1124__B1 _0514_ VGND VGND VPWR VPWR sky130_fd_sc_hd__diode_2
X_1399_ recv_divcnt\[1\] recv_divcnt\[0\] VGND VGND VPWR VPWR _0732_ sky130_fd_sc_hd__nand2_1
XFILLER_0_97_707 VGND VGND VPWR VPWR sky130_fd_sc_hd__fill_2
XFILLER_0_97_729 VGND VPWR VPWR VGND sky130_ef_sc_hd__decap_12
XTAP_TAPCELL_ROW_2_357 VGND VPWR sky130_fd_sc_hd__tapvpwrvgnd_1
XTAP_TAPCELL_ROW_2_368 VGND VPWR sky130_fd_sc_hd__tapvpwrvgnd_1
XFILLER_0_145_93 VGND VPWR VPWR VGND sky130_ef_sc_hd__decap_12
XFILLER_0_49_111 VGND VGND VPWR VPWR sky130_fd_sc_hd__fill_1
XFILLER_0_92_401 VGND VPWR VPWR VGND sky130_ef_sc_hd__decap_12
XFILLER_0_135_503 VGND VGND VPWR VPWR sky130_fd_sc_hd__fill_1
XFILLER_0_77_497 VGND VGND VPWR VPWR sky130_fd_sc_hd__decap_6
XFILLER_0_37_317 VGND VPWR VPWR VGND sky130_ef_sc_hd__decap_12
XTAP_TAPCELL_ROW_42_1007 VGND VPWR sky130_fd_sc_hd__tapvpwrvgnd_1
XFILLER_0_147_385 VGND VGND VPWR VPWR sky130_fd_sc_hd__decap_6
XTAP_TAPCELL_ROW_137_2524 VGND VPWR sky130_fd_sc_hd__tapvpwrvgnd_1
XFILLER_0_107_205 VGND VPWR VPWR VGND sky130_ef_sc_hd__decap_12
XFILLER_0_92_445 VGND VPWR VPWR VGND sky130_ef_sc_hd__decap_12
XFILLER_0_52_309 VGND VPWR VPWR VGND sky130_ef_sc_hd__decap_12
XFILLER_0_123_709 VGND VPWR VPWR VGND sky130_ef_sc_hd__decap_12
XFILLER_0_107_249 VGND VPWR VPWR VGND sky130_ef_sc_hd__decap_12
XFILLER_0_92_489 VGND VPWR VPWR VGND sky130_ef_sc_hd__decap_12
XFILLER_0_61_821 VGND VPWR VPWR VGND sky130_ef_sc_hd__decap_12
XFILLER_0_45_361 VGND VPWR VPWR VGND sky130_ef_sc_hd__decap_12
XFILLER_0_61_854 VGND VPWR VPWR VGND sky130_ef_sc_hd__decap_12
XTAP_TAPCELL_ROW_21_665 VGND VPWR sky130_fd_sc_hd__tapvpwrvgnd_1
XFILLER_0_33_523 VGND VGND VPWR VPWR sky130_fd_sc_hd__fill_2
XTAP_TAPCELL_ROW_150_2735 VGND VPWR sky130_fd_sc_hd__tapvpwrvgnd_1
XTAP_TAPCELL_ROW_150_2724 VGND VPWR sky130_fd_sc_hd__tapvpwrvgnd_1
XFILLER_0_115_293 VGND VPWR VPWR VGND sky130_ef_sc_hd__decap_12
XFILLER_0_61_887 VGND VGND VPWR VPWR sky130_fd_sc_hd__decap_6
XFILLER_0_21_729 VGND VPWR VPWR VGND sky130_ef_sc_hd__decap_12
XFILLER_0_131_753 VGND VPWR VPWR VGND sky130_ef_sc_hd__decap_12
XFILLER_0_131_797 VGND VPWR VPWR VGND sky130_ef_sc_hd__decap_12
XTAP_TAPCELL_ROW_70_1450 VGND VPWR sky130_fd_sc_hd__tapvpwrvgnd_1
XFILLER_0_18_29 VGND VPWR VPWR VGND sky130_ef_sc_hd__decap_12
XTAP_TAPCELL_ROW_148_2697 VGND VPWR sky130_fd_sc_hd__tapvpwrvgnd_1
XFILLER_0_87_217 VGND VGND VPWR VPWR sky130_fd_sc_hd__decap_6
XTAP_TAPCELL_ROW_29_787 VGND VPWR sky130_fd_sc_hd__tapvpwrvgnd_1
XTAP_TAPCELL_ROW_29_798 VGND VPWR sky130_fd_sc_hd__tapvpwrvgnd_1
XFILLER_0_96_784 VGND VGND VPWR VPWR sky130_fd_sc_hd__decap_8
XFILLER_0_68_475 VGND VGND VPWR VPWR sky130_fd_sc_hd__fill_1
XANTENNA__1430__C _0740_ VGND VGND VPWR VPWR sky130_fd_sc_hd__diode_2
XFILLER_0_139_853 VGND VPWR VPWR VGND sky130_ef_sc_hd__decap_12
XFILLER_0_95_261 VGND VPWR VPWR VGND sky130_ef_sc_hd__decap_12
XFILLER_0_56_637 VGND VGND VPWR VPWR sky130_fd_sc_hd__decap_6
XFILLER_0_55_125 VGND VPWR VPWR VGND sky130_ef_sc_hd__decap_12
XFILLER_0_139_897 VGND VGND VPWR VPWR sky130_fd_sc_hd__fill_2
XFILLER_0_139_886 VGND VGND VPWR VPWR sky130_fd_sc_hd__fill_2
XFILLER_0_138_363 VGND VGND VPWR VPWR sky130_fd_sc_hd__fill_1
XFILLER_0_126_525 VGND VGND VPWR VPWR sky130_fd_sc_hd__decap_6
XFILLER_0_50_27 VGND VGND VPWR VPWR sky130_fd_sc_hd__fill_1
XFILLER_0_126_569 VGND VPWR VPWR VGND sky130_ef_sc_hd__decap_12
XFILLER_0_114_709 VGND VPWR VPWR VGND sky130_ef_sc_hd__decap_12
XFILLER_0_55_169 VGND VPWR VPWR VGND sky130_ef_sc_hd__decap_12
XTAP_TAPCELL_ROW_40_963 VGND VPWR sky130_fd_sc_hd__tapvpwrvgnd_1
XFILLER_0_141_517 VGND VPWR VPWR VGND sky130_ef_sc_hd__decap_12
XFILLER_0_107_783 VGND VGND VPWR VPWR sky130_fd_sc_hd__fill_1
X_0770_ send_dummy send_bitcnt\[3\] _0204_ VGND VGND VPWR VPWR _0205_ sky130_fd_sc_hd__or3_1
XFILLER_0_70_139 VGND VGND VPWR VPWR sky130_fd_sc_hd__fill_1
XFILLER_0_64_692 VGND VGND VPWR VPWR sky130_fd_sc_hd__decap_8
XFILLER_0_3_417 VGND VPWR VPWR VGND sky130_ef_sc_hd__decap_12
XFILLER_0_24_545 VGND VPWR VPWR VGND sky130_ef_sc_hd__decap_12
XTAP_TAPCELL_ROW_40_974 VGND VPWR sky130_fd_sc_hd__tapvpwrvgnd_1
XFILLER_0_24_589 VGND VPWR VPWR VGND sky130_ef_sc_hd__decap_12
XFILLER_0_11_217 VGND VGND VPWR VPWR sky130_fd_sc_hd__decap_6
XFILLER_0_59_69 VGND VPWR VPWR VGND sky130_ef_sc_hd__decap_12
X_1322_ send_divcnt\[24\] _0677_ VGND VGND VPWR VPWR _0680_ sky130_fd_sc_hd__nand2_1
XFILLER_0_75_57 VGND VPWR VPWR VGND sky130_ef_sc_hd__decap_12
X_1253_ send_divcnt\[6\] _0625_ VGND VGND VPWR VPWR _0629_ sky130_fd_sc_hd__or2_1
XTAP_TAPCELL_ROW_88_1744 VGND VPWR sky130_fd_sc_hd__tapvpwrvgnd_1
XTAP_TAPCELL_ROW_88_1733 VGND VPWR sky130_fd_sc_hd__tapvpwrvgnd_1
XFILLER_0_79_729 VGND VPWR VPWR VGND sky130_ef_sc_hd__decap_12
X_1184_ net87 recv_divcnt\[13\] VGND VGND VPWR VPWR _0570_ sky130_fd_sc_hd__and2b_1
XFILLER_0_149_617 VGND VPWR VPWR VGND sky130_ef_sc_hd__decap_12
XFILLER_0_74_401 VGND VPWR VPWR VGND sky130_ef_sc_hd__decap_12
XFILLER_0_19_317 VGND VPWR VPWR VGND sky130_ef_sc_hd__decap_12
XFILLER_0_24_83 VGND VGND VPWR VPWR sky130_fd_sc_hd__fill_1
XFILLER_0_129_385 VGND VGND VPWR VPWR sky130_fd_sc_hd__decap_6
XFILLER_0_117_503 VGND VGND VPWR VPWR sky130_fd_sc_hd__fill_1
XFILLER_0_74_445 VGND VPWR VPWR VGND sky130_ef_sc_hd__decap_12
XFILLER_0_7_734 VGND VPWR VPWR VGND sky130_ef_sc_hd__decap_12
XFILLER_0_144_333 VGND VPWR VPWR VGND sky130_ef_sc_hd__decap_12
XFILLER_0_131_51 VGND VGND VPWR VPWR sky130_fd_sc_hd__decap_4
XTAP_TAPCELL_ROW_119_2232 VGND VPWR sky130_fd_sc_hd__tapvpwrvgnd_1
XFILLER_0_74_489 VGND VPWR VPWR VGND sky130_ef_sc_hd__decap_12
XFILLER_0_6_233 VGND VPWR VPWR VGND sky130_ef_sc_hd__decap_12
XFILLER_0_27_361 VGND VPWR VPWR VGND sky130_ef_sc_hd__decap_12
XFILLER_0_34_309 VGND VPWR VPWR VGND sky130_ef_sc_hd__decap_12
XFILLER_0_145_889 VGND VGND VPWR VPWR sky130_fd_sc_hd__decap_6
XFILLER_0_144_377 VGND VPWR VPWR VGND sky130_ef_sc_hd__decap_12
Xclkbuf_4_12_0_clk clknet_0_clk VGND VGND VPWR VPWR clknet_4_12_0_clk sky130_fd_sc_hd__clkbuf_8
X_0968_ net95 net24 net45 VGND VGND VPWR VPWR _0379_ sky130_fd_sc_hd__mux2_1
XFILLER_0_6_277 VGND VPWR VPWR VGND sky130_ef_sc_hd__decap_12
XTAP_TAPCELL_ROW_132_2443 VGND VPWR sky130_fd_sc_hd__tapvpwrvgnd_1
XFILLER_0_113_753 VGND VPWR VPWR VGND sky130_ef_sc_hd__decap_12
XFILLER_0_71_3 VGND VPWR VPWR VGND sky130_ef_sc_hd__decap_12
X_0899_ _0299_ _0308_ _0323_ VGND VGND VPWR VPWR _0324_ sky130_fd_sc_hd__or3_1
XFILLER_0_113_797 VGND VPWR VPWR VGND sky130_ef_sc_hd__decap_12
XTAP_TAPCELL_ROW_7_438 VGND VPWR sky130_fd_sc_hd__tapvpwrvgnd_1
XFILLER_0_100_469 VGND VGND VPWR VPWR sky130_fd_sc_hd__decap_6
XTAP_TAPCELL_ROW_7_449 VGND VPWR sky130_fd_sc_hd__tapvpwrvgnd_1
XFILLER_0_69_217 VGND VGND VPWR VPWR sky130_fd_sc_hd__decap_6
XFILLER_0_139_105 VGND VGND VPWR VPWR sky130_fd_sc_hd__decap_6
XFILLER_0_97_559 VGND VGND VPWR VPWR sky130_fd_sc_hd__fill_1
XFILLER_0_84_209 VGND VPWR VPWR VGND sky130_ef_sc_hd__decap_12
XANTENNA__1250__C _0617_ VGND VGND VPWR VPWR sky130_fd_sc_hd__diode_2
XTAP_TAPCELL_ROW_26_746 VGND VPWR sky130_fd_sc_hd__tapvpwrvgnd_1
XFILLER_0_139_149 VGND VPWR VPWR VGND sky130_ef_sc_hd__decap_12
XFILLER_0_77_261 VGND VPWR VPWR VGND sky130_ef_sc_hd__decap_12
XFILLER_0_38_626 VGND VGND VPWR VPWR sky130_fd_sc_hd__fill_2
XFILLER_0_108_525 VGND VGND VPWR VPWR sky130_fd_sc_hd__decap_6
XFILLER_0_93_776 VGND VGND VPWR VPWR sky130_fd_sc_hd__decap_8
XFILLER_0_93_754 VGND VGND VPWR VPWR sky130_fd_sc_hd__fill_2
XFILLER_0_37_125 VGND VPWR VPWR VGND sky130_ef_sc_hd__decap_12
XFILLER_0_38_659 VGND VGND VPWR VPWR sky130_fd_sc_hd__fill_1
XFILLER_0_147_193 VGND VPWR VPWR VGND sky130_ef_sc_hd__decap_12
XFILLER_0_136_867 VGND VGND VPWR VPWR sky130_fd_sc_hd__fill_1
XFILLER_0_92_253 VGND VPWR VPWR VGND sky130_ef_sc_hd__decap_12
XFILLER_0_34_810 VGND VGND VPWR VPWR sky130_fd_sc_hd__fill_2
XFILLER_0_37_169 VGND VPWR VPWR VGND sky130_ef_sc_hd__decap_12
XPHY_EDGE_ROW_137_Right_137 VGND VGND VPWR VPWR sky130_fd_sc_hd__decap_3
XFILLER_0_123_517 VGND VPWR VPWR VGND sky130_ef_sc_hd__decap_12
XFILLER_0_108_569 VGND VPWR VPWR VGND sky130_ef_sc_hd__decap_12
XFILLER_0_52_139 VGND VGND VPWR VPWR sky130_fd_sc_hd__fill_1
XFILLER_0_61_662 VGND VGND VPWR VPWR sky130_fd_sc_hd__fill_2
XFILLER_0_21_537 VGND VPWR VPWR VGND sky130_ef_sc_hd__decap_12
XFILLER_0_131_561 VGND VPWR VPWR VGND sky130_ef_sc_hd__decap_12
XTAP_TAPCELL_ROW_55_1209 VGND VPWR sky130_fd_sc_hd__tapvpwrvgnd_1
XFILLER_0_29_39 VGND VPWR VPWR VGND sky130_ef_sc_hd__decap_12
XFILLER_0_136_29 VGND VPWR VPWR VGND sky130_ef_sc_hd__decap_12
XFILLER_0_45_27 VGND VPWR VPWR VGND sky130_ef_sc_hd__decap_12
XFILLER_0_61_15 VGND VPWR VPWR VGND sky130_ef_sc_hd__decap_12
XFILLER_0_0_29 VGND VPWR VPWR VGND sky130_ef_sc_hd__decap_12
XFILLER_0_96_581 VGND VGND VPWR VPWR sky130_fd_sc_hd__decap_6
XTAP_TAPCELL_ROW_83_1663 VGND VPWR sky130_fd_sc_hd__tapvpwrvgnd_1
XTAP_TAPCELL_ROW_83_1652 VGND VPWR sky130_fd_sc_hd__tapvpwrvgnd_1
XFILLER_0_56_401 VGND VPWR VPWR VGND sky130_ef_sc_hd__decap_12
XFILLER_0_56_445 VGND VPWR VPWR VGND sky130_ef_sc_hd__decap_12
XFILLER_0_126_333 VGND VPWR VPWR VGND sky130_ef_sc_hd__decap_12
XFILLER_0_16_309 VGND VPWR VPWR VGND sky130_ef_sc_hd__decap_12
XFILLER_0_25_810 VGND VGND VPWR VPWR sky130_fd_sc_hd__fill_2
XFILLER_0_126_377 VGND VPWR VPWR VGND sky130_ef_sc_hd__decap_12
XPHY_EDGE_ROW_104_Right_104 VGND VGND VPWR VPWR sky130_fd_sc_hd__decap_3
XFILLER_0_9_27 VGND VPWR VPWR VGND sky130_ef_sc_hd__decap_12
XFILLER_0_25_854 VGND VGND VPWR VPWR sky130_fd_sc_hd__fill_2
X_0822_ recv_divcnt\[6\] VGND VGND VPWR VPWR _0247_ sky130_fd_sc_hd__inv_2
XFILLER_0_142_837 VGND VPWR VPWR VGND sky130_ef_sc_hd__decap_12
XFILLER_0_4_748 VGND VGND VPWR VPWR sky130_fd_sc_hd__fill_2
XFILLER_0_3_225 VGND VPWR VPWR VGND sky130_ef_sc_hd__decap_12
XFILLER_0_40_813 VGND VPWR VPWR VGND sky130_ef_sc_hd__decap_12
XTAP_TAPCELL_ROW_114_2151 VGND VPWR sky130_fd_sc_hd__tapvpwrvgnd_1
XFILLER_0_51_161 VGND VGND VPWR VPWR sky130_fd_sc_hd__decap_6
XFILLER_0_10_41 VGND VPWR VPWR VGND sky130_ef_sc_hd__decap_12
XFILLER_0_150_881 VGND VPWR VPWR VGND sky130_ef_sc_hd__decap_12
XFILLER_0_110_701 VGND VPWR VPWR VGND sky130_ef_sc_hd__decap_12
XFILLER_0_10_85 VGND VPWR VPWR VGND sky130_ef_sc_hd__decap_12
XANTENNA__1592__CLK clknet_4_5_0_clk VGND VGND VPWR VPWR sky130_fd_sc_hd__diode_2
X_1305_ _0667_ VGND VGND VPWR VPWR _0062_ sky130_fd_sc_hd__clkbuf_1
XFILLER_0_36_6 VGND VGND VPWR VPWR sky130_fd_sc_hd__fill_2
X_1236_ _0513_ VGND VGND VPWR VPWR _0616_ sky130_fd_sc_hd__clkbuf_4
XFILLER_0_79_559 VGND VGND VPWR VPWR sky130_fd_sc_hd__fill_1
X_1167_ net104 recv_divcnt\[1\] VGND VGND VPWR VPWR _0553_ sky130_fd_sc_hd__and2b_1
XFILLER_0_66_209 VGND VPWR VPWR VGND sky130_ef_sc_hd__decap_12
XFILLER_0_35_93 VGND VPWR VPWR VGND sky130_ef_sc_hd__decap_12
XFILLER_0_149_447 VGND VGND VPWR VPWR sky130_fd_sc_hd__fill_1
XFILLER_0_137_609 VGND VGND VPWR VPWR sky130_fd_sc_hd__decap_6
X_1098_ send_dummy _0491_ VGND VGND VPWR VPWR _0498_ sky130_fd_sc_hd__and2_1
XFILLER_0_59_261 VGND VPWR VPWR VGND sky130_ef_sc_hd__decap_12
XTAP_TAPCELL_ROW_23_705 VGND VPWR sky130_fd_sc_hd__tapvpwrvgnd_1
XFILLER_0_118_834 VGND VPWR VPWR VGND sky130_ef_sc_hd__decap_12
XFILLER_0_75_765 VGND VGND VPWR VPWR sky130_fd_sc_hd__decap_8
XFILLER_0_19_125 VGND VPWR VPWR VGND sky130_ef_sc_hd__decap_12
XFILLER_0_145_653 VGND VPWR VPWR VGND sky130_ef_sc_hd__decap_12
XFILLER_0_142_83 VGND VGND VPWR VPWR sky130_fd_sc_hd__fill_1